make: Nothing to be done for 'all'.
Master: Running timer....
Master: Running SRC....
BEGIN Configuration File: ./examples/bitrev
// Topology

topology = mesh;
k = 4;
n = 2;

// Routing
routing_function = min_adapt;

// Flow control
num_vcs     = 4;
vc_buf_size = 4;
wait_for_tail_credit = 0;

// Router architecture
vc_allocator = islip;
sw_allocator = islip;
alloc_iters  = 1;

credit_delay   = 1;
routing_delay  = 1;
vc_alloc_delay = 1;
sw_alloc_delay = 1;

input_speedup     = 1;
output_speedup    = 1;
internal_speedup  = 1.0;

vc_busy_when_full = 0;

// Traffic
traffic = uniform;
packet_size = 1;

// Simulation
sim_type = throughput;

injection_rate = 0.05;

END Configuration File: ./examples/bitrev
===== Time: 10000 =====
Class 0:
Minimum packet latency = 8
Average packet latency = 41.9872
Maximum packet latency = 143
Minimum network latency = 9
Average network latency = 42.9872
Maximum network latency = 144
Slowest packet = 1373
Minimum flit latency = 9
Average flit latency = 42.9872
Maximum flit latency = 144
Slowest flit = 1373
Minimum fragmentation = 0
Average fragmentation = 0
Maximum fragmentation = 0
Minimum injected packet rate = 0.0458 (at node 0)
Average injected packet rate = 0.0494687
Maximum injected packet rate = 0.0515 (at node 12)
Minimum accepted packet rate = 0.0451 (at node 4)
Average accepted packet rate = 0.0492937
Maximum accepted packet rate = 0.0533 (at node 8)
Minimum injected flit rate = 0.0458 (at node 0)
Average injected flit rate = 0.0494687
Maximum injected flit rate = 0.0515 (at node 12)
Minimum accepted flit rate = 0.0451 (at node 4)
Average accepted flit rate = 0.0492937
Maximum accepted flit rate = 0.0533 (at node 8)
Total number of injected packets = 7915
Total number of injected flits = 7915
Average injected packet length = 1
Total number of accepted packets = 7887
Total number of accepted flits = 7887
Average accepted packet length = 1
Total in-flight flits = 28 (0 measured)
===== Time: 20000 =====
Class 0:
Minimum packet latency = 8
Average packet latency = 42.2776
Maximum packet latency = 155
Minimum network latency = 9
Average network latency = 43.2776
Maximum network latency = 156
Slowest packet = 13162
Minimum flit latency = 9
Average flit latency = 43.2776
Maximum flit latency = 156
Slowest flit = 13162
Minimum fragmentation = 0
Average fragmentation = 0
Maximum fragmentation = 0
Minimum injected packet rate = 0.0483 (at node 8)
Average injected packet rate = 0.0500375
Maximum injected packet rate = 0.0526 (at node 12)
Minimum accepted packet rate = 0.0456 (at node 4)
Average accepted packet rate = 0.0499313
Maximum accepted packet rate = 0.0534 (at node 8)
Minimum injected flit rate = 0.0483 (at node 8)
Average injected flit rate = 0.0500375
Maximum injected flit rate = 0.0526 (at node 12)
Minimum accepted flit rate = 0.0456 (at node 4)
Average accepted flit rate = 0.0499313
Maximum accepted flit rate = 0.0534 (at node 8)
Total number of injected packets = 16012
Total number of injected flits = 16012
Average injected packet length = 1
Total number of accepted packets = 15978
Total number of accepted flits = 15978
Average accepted packet length = 1
Total in-flight flits = 34 (0 measured)
===== Time: 30000 =====
Class 0:
Minimum packet latency = 8
Average packet latency = 48.1616
Maximum packet latency = 762
Minimum network latency = 9
Average network latency = 48.9013
Maximum network latency = 763
Slowest packet = 18679
Minimum flit latency = 9
Average flit latency = 48.9013
Maximum flit latency = 763
Slowest flit = 18679
Minimum fragmentation = 0
Average fragmentation = 0
Maximum fragmentation = 0
Minimum injected packet rate = 0.0455 (at node 15)
Average injected packet rate = 0.0495875
Maximum injected packet rate = 0.0546 (at node 13)
Minimum accepted packet rate = 0.045 (at node 4)
Average accepted packet rate = 0.049625
Maximum accepted packet rate = 0.0524 (at node 5)
Minimum injected flit rate = 0.0455 (at node 15)
Average injected flit rate = 0.0495875
Maximum injected flit rate = 0.0546 (at node 13)
Minimum accepted flit rate = 0.045 (at node 4)
Average accepted flit rate = 0.049625
Maximum accepted flit rate = 0.0524 (at node 5)
Total number of injected packets = 7934
Total number of injected flits = 7934
Average injected packet length = 1
Total number of accepted packets = 7940
Total number of accepted flits = 7940
Average accepted packet length = 1
Total in-flight flits = 28 (0 measured)
===== Time: 40000 =====
Class 0:
Minimum packet latency = 8
Average packet latency = 42.1443
Maximum packet latency = 151
Minimum network latency = 9
Average network latency = 43.1443
Maximum network latency = 152
Slowest packet = 28929
Minimum flit latency = 9
Average flit latency = 43.1614
Maximum flit latency = 152
Slowest flit = 28929
Minimum fragmentation = 0
Average fragmentation = 0
Maximum fragmentation = 0
Minimum injected packet rate = 0.0473 (at node 6)
Average injected packet rate = 0.0501938
Maximum injected packet rate = 0.0543 (at node 14)
Minimum accepted packet rate = 0.0455 (at node 4)
Average accepted packet rate = 0.0501625
Maximum accepted packet rate = 0.0545 (at node 10)
Minimum injected flit rate = 0.0473 (at node 6)
Average injected flit rate = 0.0501938
Maximum injected flit rate = 0.0543 (at node 14)
Minimum accepted flit rate = 0.0455 (at node 4)
Average accepted flit rate = 0.0501625
Maximum accepted flit rate = 0.0545 (at node 10)
Total number of injected packets = 8031
Total number of injected flits = 8031
Average injected packet length = 1
Total number of accepted packets = 8026
Total number of accepted flits = 8026
Average accepted packet length = 1
Total in-flight flits = 33 (33 measured)
===== Time: 50000 =====
Class 0:
Minimum packet latency = 8
Average packet latency = 42.0328
Maximum packet latency = 179
Minimum network latency = 9
Average network latency = 43.0328
Maximum network latency = 180
Slowest packet = 31936
Minimum flit latency = 9
Average flit latency = 43.0415
Maximum flit latency = 180
Slowest flit = 31936
Minimum fragmentation = 0
Average fragmentation = 0
Maximum fragmentation = 0
Minimum injected packet rate = 0.04815 (at node 10)
Average injected packet rate = 0.0503
Maximum injected packet rate = 0.05345 (at node 14)
Minimum accepted packet rate = 0.04815 (at node 4)
Average accepted packet rate = 0.0502719
Maximum accepted packet rate = 0.0529 (at node 7)
Minimum injected flit rate = 0.04815 (at node 10)
Average injected flit rate = 0.0503
Maximum injected flit rate = 0.05345 (at node 14)
Minimum accepted flit rate = 0.04815 (at node 4)
Average accepted flit rate = 0.0502719
Maximum accepted flit rate = 0.0529 (at node 7)
Total number of injected packets = 16096
Total number of injected flits = 16096
Average injected packet length = 1
Total number of accepted packets = 16087
Total number of accepted flits = 16087
Average accepted packet length = 1
Total in-flight flits = 37 (37 measured)
===== Time: 60000 =====
Class 0:
Minimum packet latency = 8
Average packet latency = 41.9713
Maximum packet latency = 215
Minimum network latency = 9
Average network latency = 42.9713
Maximum network latency = 216
Slowest packet = 46160
Minimum flit latency = 9
Average flit latency = 42.9772
Maximum flit latency = 216
Slowest flit = 46160
Minimum fragmentation = 0
Average fragmentation = 0
Maximum fragmentation = 0
Minimum injected packet rate = 0.0482 (at node 10)
Average injected packet rate = 0.0501896
Maximum injected packet rate = 0.0528667 (at node 14)
Minimum accepted packet rate = 0.0484333 (at node 0)
Average accepted packet rate = 0.0501542
Maximum accepted packet rate = 0.0532333 (at node 7)
Minimum injected flit rate = 0.0482 (at node 10)
Average injected flit rate = 0.0501896
Maximum injected flit rate = 0.0528667 (at node 14)
Minimum accepted flit rate = 0.0484333 (at node 0)
Average accepted flit rate = 0.0501542
Maximum accepted flit rate = 0.0532333 (at node 7)
Total number of injected packets = 24091
Total number of injected flits = 24091
Average injected packet length = 1
Total number of accepted packets = 24074
Total number of accepted flits = 24074
Average accepted packet length = 1
Total in-flight flits = 45 (45 measured)
Draining remaining packets ...
Class 0:
Remaining flits: 47990 47991 47992 47993 47994 47996 48002 48003 48004 48005 [...] (35 flits)
Measured flits: 47990 47991 47992 47993 47994 47996 48002 48003 48004 48005 [...] (35 flits)
Class 0:
Remaining flits: 47991 47994 47996 48003 48004 48005 48006 48010 48012 48014 [...] (28 flits)
Measured flits: 47991 47994 47996 48003 48004 48005 48006 48010 48012 48014 [...] (28 flits)
Class 0:
Remaining flits: 47994 47996 48005 48017 48019 48020 48023 48024 48025 48028 [...] (17 flits)
Measured flits: 47994 47996 48005 48017 48019 48020 48023 48024 48025 48028 [...] (17 flits)
Class 0:
Remaining flits: 47994 47996 48005 48017 48019 48023 48025 48029 48031 48032 [...] (13 flits)
Measured flits: 47994 47996 48005 48017 48019 48023 48025 48029 48031 48032 [...] (13 flits)
Class 0:
Remaining flits: 47994 48017 48023 48031 48033 48034 (6 flits)
Measured flits: 47994 48017 48023 48031 48033 48034 (6 flits)
Class 0:
Remaining flits: 47994 48023 (2 flits)
Measured flits: 47994 48023 (2 flits)
Class 0:
Remaining flits: 47994 (1 flits)
Measured flits: 47994 (1 flits)
Class 0:
Remaining flits: 47994 (1 flits)
Measured flits: 47994 (1 flits)
Class 0:
Remaining flits: 47994 (1 flits)
Measured flits: 47994 (1 flits)
Class 0:
Remaining flits: 47994 (1 flits)
Measured flits: 47994 (1 flits)
Class 0:
Remaining flits: 47994 (1 flits)
Measured flits: 47994 (1 flits)
Class 0:
Remaining flits: 47994 (1 flits)
Measured flits: 47994 (1 flits)
Class 0:
Remaining flits: 47994 (1 flits)
Measured flits: 47994 (1 flits)
Class 0:
Remaining flits: 47994 (1 flits)
Measured flits: 47994 (1 flits)
Class 0:
Remaining flits: 47994 (1 flits)
Measured flits: 47994 (1 flits)
Class 0:
Remaining flits: 47994 (1 flits)
Measured flits: 47994 (1 flits)
Class 0:
Remaining flits: 47994 (1 flits)
Measured flits: 47994 (1 flits)
Class 0:
Remaining flits: 47994 (1 flits)
Measured flits: 47994 (1 flits)
Class 0:
Remaining flits: 47994 (1 flits)
Measured flits: 47994 (1 flits)
Class 0:
Remaining flits: 47994 (1 flits)
Measured flits: 47994 (1 flits)
Class 0:
Remaining flits: 47994 (1 flits)
Measured flits: 47994 (1 flits)
Class 0:
Remaining flits: 47994 (1 flits)
Measured flits: 47994 (1 flits)
Class 0:
Remaining flits: 47994 (1 flits)
Measured flits: 47994 (1 flits)
Class 0:
Remaining flits: 47994 (1 flits)
Measured flits: 47994 (1 flits)
Class 0:
Remaining flits: 47994 (1 flits)
Measured flits: 47994 (1 flits)
Class 0:
Remaining flits: 47994 (1 flits)
Measured flits: 47994 (1 flits)
Class 0:
Remaining flits: 47994 (1 flits)
Measured flits: 47994 (1 flits)
Class 0:
Remaining flits: 47994 (1 flits)
Measured flits: 47994 (1 flits)
Class 0:
Remaining flits: 47994 (1 flits)
Measured flits: 47994 (1 flits)
Class 0:
Remaining flits: 47994 (1 flits)
Measured flits: 47994 (1 flits)
Class 0:
Remaining flits: 47994 (1 flits)
Measured flits: 47994 (1 flits)
Class 0:
Remaining flits: 47994 (1 flits)
Measured flits: 47994 (1 flits)
Class 0:
Remaining flits: 47994 (1 flits)
Measured flits: 47994 (1 flits)
Class 0:
Remaining flits: 47994 (1 flits)
Measured flits: 47994 (1 flits)
Class 0:
Remaining flits: 47994 (1 flits)
Measured flits: 47994 (1 flits)
Class 0:
Remaining flits: 47994 (1 flits)
Measured flits: 47994 (1 flits)
Class 0:
Remaining flits: 47994 (1 flits)
Measured flits: 47994 (1 flits)
Class 0:
Remaining flits: 47994 (1 flits)
Measured flits: 47994 (1 flits)
Class 0:
Remaining flits: 47994 (1 flits)
Measured flits: 47994 (1 flits)
Class 0:
Remaining flits: 47994 (1 flits)
Measured flits: 47994 (1 flits)
Class 0:
Remaining flits: 47994 (1 flits)
Measured flits: 47994 (1 flits)
Class 0:
Remaining flits: 47994 (1 flits)
Measured flits: 47994 (1 flits)
Class 0:
Remaining flits: 47994 (1 flits)
Measured flits: 47994 (1 flits)
Class 0:
Remaining flits: 47994 (1 flits)
Measured flits: 47994 (1 flits)
Class 0:
Remaining flits: 47994 (1 flits)
Measured flits: 47994 (1 flits)
Class 0:
Remaining flits: 47994 (1 flits)
Measured flits: 47994 (1 flits)
Class 0:
Remaining flits: 47994 (1 flits)
Measured flits: 47994 (1 flits)
Class 0:
Remaining flits: 47994 (1 flits)
Measured flits: 47994 (1 flits)
Class 0:
Remaining flits: 47994 (1 flits)
Measured flits: 47994 (1 flits)
Class 0:
Remaining flits: 47994 (1 flits)
Measured flits: 47994 (1 flits)
Class 0:
Remaining flits: 47994 (1 flits)
Measured flits: 47994 (1 flits)
Class 0:
Remaining flits: 47994 (1 flits)
Measured flits: 47994 (1 flits)
Class 0:
Remaining flits: 47994 (1 flits)
Measured flits: 47994 (1 flits)
Class 0:
Remaining flits: 47994 (1 flits)
Measured flits: 47994 (1 flits)
Class 0:
Remaining flits: 47994 (1 flits)
Measured flits: 47994 (1 flits)
Class 0:
Remaining flits: 47994 (1 flits)
Measured flits: 47994 (1 flits)
Class 0:
Remaining flits: 47994 (1 flits)
Measured flits: 47994 (1 flits)
Class 0:
Remaining flits: 47994 (1 flits)
Measured flits: 47994 (1 flits)
Class 0:
Remaining flits: 47994 (1 flits)
Measured flits: 47994 (1 flits)
Class 0:
Remaining flits: 47994 (1 flits)
Measured flits: 47994 (1 flits)
Class 0:
Remaining flits: 47994 (1 flits)
Measured flits: 47994 (1 flits)
Class 0:
Remaining flits: 47994 (1 flits)
Measured flits: 47994 (1 flits)
Class 0:
Remaining flits: 47994 (1 flits)
Measured flits: 47994 (1 flits)
Class 0:
Remaining flits: 47994 (1 flits)
Measured flits: 47994 (1 flits)
Class 0:
Remaining flits: 47994 (1 flits)
Measured flits: 47994 (1 flits)
Class 0:
Remaining flits: 47994 (1 flits)
Measured flits: 47994 (1 flits)
Class 0:
Remaining flits: 47994 (1 flits)
Measured flits: 47994 (1 flits)
Class 0:
Remaining flits: 47994 (1 flits)
Measured flits: 47994 (1 flits)
Class 0:
Remaining flits: 47994 (1 flits)
Measured flits: 47994 (1 flits)
Class 0:
Remaining flits: 47994 (1 flits)
Measured flits: 47994 (1 flits)
Class 0:
Remaining flits: 47994 (1 flits)
Measured flits: 47994 (1 flits)
Class 0:
Remaining flits: 47994 (1 flits)
Measured flits: 47994 (1 flits)
Class 0:
Remaining flits: 47994 (1 flits)
Measured flits: 47994 (1 flits)
Class 0:
Remaining flits: 47994 (1 flits)
Measured flits: 47994 (1 flits)
Class 0:
Remaining flits: 47994 (1 flits)
Measured flits: 47994 (1 flits)
Class 0:
Remaining flits: 47994 (1 flits)
Measured flits: 47994 (1 flits)
Class 0:
Remaining flits: 47994 (1 flits)
Measured flits: 47994 (1 flits)
Class 0:
Remaining flits: 47994 (1 flits)
Measured flits: 47994 (1 flits)
Class 0:
Remaining flits: 47994 (1 flits)
Measured flits: 47994 (1 flits)
Class 0:
Remaining flits: 47994 (1 flits)
Measured flits: 47994 (1 flits)
Class 0:
Remaining flits: 47994 (1 flits)
Measured flits: 47994 (1 flits)
Class 0:
Remaining flits: 47994 (1 flits)
Measured flits: 47994 (1 flits)
Class 0:
Remaining flits: 47994 (1 flits)
Measured flits: 47994 (1 flits)
Class 0:
Remaining flits: 47994 (1 flits)
Measured flits: 47994 (1 flits)
Class 0:
Remaining flits: 47994 (1 flits)
Measured flits: 47994 (1 flits)
Class 0:
Remaining flits: 47994 (1 flits)
Measured flits: 47994 (1 flits)
Class 0:
Remaining flits: 47994 (1 flits)
Measured flits: 47994 (1 flits)
Class 0:
Remaining flits: 47994 (1 flits)
Measured flits: 47994 (1 flits)
Class 0:
Remaining flits: 47994 (1 flits)
Measured flits: 47994 (1 flits)
Class 0:
Remaining flits: 47994 (1 flits)
Measured flits: 47994 (1 flits)
Class 0:
Remaining flits: 47994 (1 flits)
Measured flits: 47994 (1 flits)
Class 0:
Remaining flits: 47994 (1 flits)
Measured flits: 47994 (1 flits)
Class 0:
Remaining flits: 47994 (1 flits)
Measured flits: 47994 (1 flits)
Class 0:
Remaining flits: 47994 (1 flits)
Measured flits: 47994 (1 flits)
Class 0:
Remaining flits: 47994 (1 flits)
Measured flits: 47994 (1 flits)
Class 0:
Remaining flits: 47994 (1 flits)
Measured flits: 47994 (1 flits)
Class 0:
Remaining flits: 47994 (1 flits)
Measured flits: 47994 (1 flits)
Class 0:
Remaining flits: 47994 (1 flits)
Measured flits: 47994 (1 flits)
Class 0:
Remaining flits: 47994 (1 flits)
Measured flits: 47994 (1 flits)
Class 0:
Remaining flits: 47994 (1 flits)
Measured flits: 47994 (1 flits)
Class 0:
Remaining flits: 47994 (1 flits)
Measured flits: 47994 (1 flits)
Time taken is 61000 cycles
====== Traffic class 0 ======

Total number of flits generated = 48037, changed lanes = 44509
Overall minimum packet latency = 8 (1 samples)
Overall average packet latency = 41.9902 (1 samples)
Overall maximum packet latency = 215 (1 samples)
Overall minimum network latency = 9 (1 samples)
Overall average network latency = 42.9902 (1 samples)
Overall maximum network latency = 216 (1 samples)
Overall minimum flit latency = 9 (1 samples)
Overall average flit latency = 42.9961 (1 samples)
Overall maximum flit latency = 216 (1 samples)
Overall minimum fragmentation = 0 (1 samples)
Overall average fragmentation = 0 (1 samples)
Overall maximum fragmentation = 0 (1 samples)
Overall minimum injected packet rate = 0.0482 (1 samples)
Overall average injected packet rate = 0.0501896 (1 samples)
Overall maximum injected packet rate = 0.0528667 (1 samples)
Overall minimum accepted packet rate = 0.0484333 (1 samples)
Overall average accepted packet rate = 0.0501542 (1 samples)
Overall maximum accepted packet rate = 0.0532333 (1 samples)
Overall minimum injected flit rate = 0.0482 (1 samples)
Overall average injected flit rate = 0.0501896 (1 samples)
Overall maximum injected flit rate = 0.0528667 (1 samples)
Overall minimum accepted flit rate = 0.0484333 (1 samples)
Overall average accepted flit rate = 0.0501542 (1 samples)
Overall maximum accepted flit rate = 0.0532333 (1 samples)
Overall average injected packet size = 1 (1 samples)
Overall average accepted packet size = 1 (1 samples)
Overall average hops = 3.4922 (1 samples)
Overall throughput of the network (flits/cycle) = 1.6012
Overall throughput of the network (packets/cycle) = 1.6012
Total run time 47.8448
