make: Nothing to be done for 'all'.
Master: Running timer....
Master: Running SRC....
BEGIN Configuration File: ./examples/bitrev
// Topology

topology = torus;
k = 4;
n = 2;

// Routing
routing_function = dim_order;

// Flow control
num_vcs     = 4;
vc_buf_size = 4;
wait_for_tail_credit = 0;

// Router architecture
vc_allocator = islip;
sw_allocator = islip;
alloc_iters  = 1;

credit_delay   = 1;
routing_delay  = 1;
vc_alloc_delay = 1;
sw_alloc_delay = 1;

input_speedup     = 1;
output_speedup    = 1;
internal_speedup  = 1.0;

vc_busy_when_full = 0;

// Traffic
traffic = uniform;
packet_size = 1;

// Simulation
sim_type = throughput;

injection_rate = 0.07;

END Configuration File: ./examples/bitrev
===== Time: 1000 =====
Class 0:
Minimum packet latency = 7
Average packet latency = 25.3709
Maximum packet latency = 251
Minimum network latency = 8
Average network latency = 26.3709
Maximum network latency = 252
Slowest packet = 450
Minimum flit latency = 8
Average flit latency = 26.3709
Maximum flit latency = 252
Slowest flit = 450
Minimum fragmentation = 0
Average fragmentation = 0
Maximum fragmentation = 0
Minimum injected packet rate = 0.058 (at node 8)
Average injected packet rate = 0.068125
Maximum injected packet rate = 0.077 (at node 1)
Minimum accepted packet rate = 0.054 (at node 14)
Average accepted packet rate = 0.0670625
Maximum accepted packet rate = 0.079 (at node 1)
Minimum injected flit rate = 0.058 (at node 8)
Average injected flit rate = 0.068125
Maximum injected flit rate = 0.077 (at node 1)
Minimum accepted flit rate = 0.054 (at node 14)
Average accepted flit rate = 0.0670625
Maximum accepted flit rate = 0.079 (at node 1)
Total number of injected packets = 1090
Total number of injected flits = 1090
Average injected packet length = 1
Total number of accepted packets = 1073
Total number of accepted flits = 1073
Average accepted packet length = 1
Total in-flight flits = 17 (0 measured)
===== Time: 2000 =====
Class 0:
Minimum packet latency = 7
Average packet latency = 25.1846
Maximum packet latency = 251
Minimum network latency = 8
Average network latency = 26.1846
Maximum network latency = 252
Slowest packet = 450
Minimum flit latency = 8
Average flit latency = 26.1846
Maximum flit latency = 252
Slowest flit = 450
Minimum fragmentation = 0
Average fragmentation = 0
Maximum fragmentation = 0
Minimum injected packet rate = 0.0565 (at node 8)
Average injected packet rate = 0.0672187
Maximum injected packet rate = 0.075 (at node 4)
Minimum accepted packet rate = 0.0545 (at node 14)
Average accepted packet rate = 0.0661875
Maximum accepted packet rate = 0.073 (at node 1)
Minimum injected flit rate = 0.0565 (at node 8)
Average injected flit rate = 0.0672187
Maximum injected flit rate = 0.075 (at node 4)
Minimum accepted flit rate = 0.0545 (at node 14)
Average accepted flit rate = 0.0661875
Maximum accepted flit rate = 0.073 (at node 1)
Total number of injected packets = 2151
Total number of injected flits = 2151
Average injected packet length = 1
Total number of accepted packets = 2118
Total number of accepted flits = 2118
Average accepted packet length = 1
Total in-flight flits = 33 (0 measured)
===== Time: 3000 =====
Class 0:
Minimum packet latency = 7
Average packet latency = 25.7237
Maximum packet latency = 328
Minimum network latency = 8
Average network latency = 26.7237
Maximum network latency = 329
Slowest packet = 2102
Minimum flit latency = 8
Average flit latency = 26.7237
Maximum flit latency = 329
Slowest flit = 2102
Minimum fragmentation = 0
Average fragmentation = 0
Maximum fragmentation = 0
Minimum injected packet rate = 0.064 (at node 4)
Average injected packet rate = 0.0718125
Maximum injected packet rate = 0.081 (at node 6)
Minimum accepted packet rate = 0.05 (at node 4)
Average accepted packet rate = 0.0719375
Maximum accepted packet rate = 0.081 (at node 8)
Minimum injected flit rate = 0.064 (at node 4)
Average injected flit rate = 0.0718125
Maximum injected flit rate = 0.081 (at node 6)
Minimum accepted flit rate = 0.05 (at node 4)
Average accepted flit rate = 0.0719375
Maximum accepted flit rate = 0.081 (at node 8)
Total number of injected packets = 1149
Total number of injected flits = 1149
Average injected packet length = 1
Total number of accepted packets = 1151
Total number of accepted flits = 1151
Average accepted packet length = 1
Total in-flight flits = 31 (0 measured)
===== Time: 4000 =====
Class 0:
Minimum packet latency = 7
Average packet latency = 24.7679
Maximum packet latency = 210
Minimum network latency = 8
Average network latency = 25.7679
Maximum network latency = 211
Slowest packet = 3535
Minimum flit latency = 8
Average flit latency = 25.8304
Maximum flit latency = 211
Slowest flit = 3535
Minimum fragmentation = 0
Average fragmentation = 0
Maximum fragmentation = 0
Minimum injected packet rate = 0.051 (at node 0)
Average injected packet rate = 0.067875
Maximum injected packet rate = 0.083 (at node 15)
Minimum accepted packet rate = 0.053 (at node 15)
Average accepted packet rate = 0.0681875
Maximum accepted packet rate = 0.086 (at node 2)
Minimum injected flit rate = 0.051 (at node 0)
Average injected flit rate = 0.067875
Maximum injected flit rate = 0.083 (at node 15)
Minimum accepted flit rate = 0.053 (at node 15)
Average accepted flit rate = 0.0681875
Maximum accepted flit rate = 0.086 (at node 2)
Total number of injected packets = 1086
Total number of injected flits = 1086
Average injected packet length = 1
Total number of accepted packets = 1091
Total number of accepted flits = 1091
Average accepted packet length = 1
Total in-flight flits = 26 (26 measured)
===== Time: 5000 =====
Class 0:
Minimum packet latency = 7
Average packet latency = 24.6388
Maximum packet latency = 210
Minimum network latency = 8
Average network latency = 25.6388
Maximum network latency = 211
Slowest packet = 3535
Minimum flit latency = 8
Average flit latency = 25.672
Maximum flit latency = 211
Slowest flit = 3535
Minimum fragmentation = 0
Average fragmentation = 0
Maximum fragmentation = 0
Minimum injected packet rate = 0.059 (at node 0)
Average injected packet rate = 0.0675625
Maximum injected packet rate = 0.0795 (at node 15)
Minimum accepted packet rate = 0.0595 (at node 1)
Average accepted packet rate = 0.0678437
Maximum accepted packet rate = 0.0755 (at node 6)
Minimum injected flit rate = 0.059 (at node 0)
Average injected flit rate = 0.0675625
Maximum injected flit rate = 0.0795 (at node 15)
Minimum accepted flit rate = 0.0595 (at node 1)
Average accepted flit rate = 0.0678437
Maximum accepted flit rate = 0.0755 (at node 6)
Total number of injected packets = 2162
Total number of injected flits = 2162
Average injected packet length = 1
Total number of accepted packets = 2171
Total number of accepted flits = 2171
Average accepted packet length = 1
Total in-flight flits = 22 (22 measured)
===== Time: 6000 =====
Class 0:
Minimum packet latency = 7
Average packet latency = 24.7909
Maximum packet latency = 210
Minimum network latency = 8
Average network latency = 25.7909
Maximum network latency = 211
Slowest packet = 3535
Minimum flit latency = 8
Average flit latency = 25.8115
Maximum flit latency = 211
Slowest flit = 3535
Minimum fragmentation = 0
Average fragmentation = 0
Maximum fragmentation = 0
Minimum injected packet rate = 0.0623333 (at node 0)
Average injected packet rate = 0.0681875
Maximum injected packet rate = 0.08 (at node 15)
Minimum accepted packet rate = 0.061 (at node 4)
Average accepted packet rate = 0.0682917
Maximum accepted packet rate = 0.0756667 (at node 6)
Minimum injected flit rate = 0.0623333 (at node 0)
Average injected flit rate = 0.0681875
Maximum injected flit rate = 0.08 (at node 15)
Minimum accepted flit rate = 0.061 (at node 4)
Average accepted flit rate = 0.0682917
Maximum accepted flit rate = 0.0756667 (at node 6)
Total number of injected packets = 3273
Total number of injected flits = 3273
Average injected packet length = 1
Total number of accepted packets = 3278
Total number of accepted flits = 3278
Average accepted packet length = 1
Total in-flight flits = 26 (26 measured)
===== Time: 7000 =====
Class 0:
Minimum packet latency = 7
Average packet latency = 24.8943
Maximum packet latency = 210
Minimum network latency = 8
Average network latency = 25.8943
Maximum network latency = 211
Slowest packet = 3535
Minimum flit latency = 8
Average flit latency = 25.9088
Maximum flit latency = 211
Slowest flit = 3535
Minimum fragmentation = 0
Average fragmentation = 0
Maximum fragmentation = 0
Minimum injected packet rate = 0.06425 (at node 0)
Average injected packet rate = 0.0690313
Maximum injected packet rate = 0.07625 (at node 15)
Minimum accepted packet rate = 0.063 (at node 4)
Average accepted packet rate = 0.0690625
Maximum accepted packet rate = 0.0755 (at node 11)
Minimum injected flit rate = 0.06425 (at node 0)
Average injected flit rate = 0.0690313
Maximum injected flit rate = 0.07625 (at node 15)
Minimum accepted flit rate = 0.063 (at node 4)
Average accepted flit rate = 0.0690625
Maximum accepted flit rate = 0.0755 (at node 11)
Total number of injected packets = 4418
Total number of injected flits = 4418
Average injected packet length = 1
Total number of accepted packets = 4420
Total number of accepted flits = 4420
Average accepted packet length = 1
Total in-flight flits = 29 (29 measured)
Draining remaining packets ...
Class 0:
Remaining flits: 7696 7699 7701 7703 7704 7707 7708 7709 7710 7711 [...] (16 flits)
Measured flits: 7696 7699 7701 7703 7704 7707 7708 7709 7710 7711 [...] (16 flits)
Class 0:
Remaining flits: 7710 7711 7712 7713 7714 7715 (6 flits)
Measured flits: 7710 7711 7712 7713 7714 7715 (6 flits)
Class 0:
Remaining flits: 7711 7712 (2 flits)
Measured flits: 7711 7712 (2 flits)
Class 0:
Remaining flits: 7712 (1 flits)
Measured flits: 7712 (1 flits)
Class 0:
Remaining flits: 7712 (1 flits)
Measured flits: 7712 (1 flits)
Class 0:
Remaining flits: 7712 (1 flits)
Measured flits: 7712 (1 flits)
Class 0:
Remaining flits: 7712 (1 flits)
Measured flits: 7712 (1 flits)
Class 0:
Remaining flits: 7712 (1 flits)
Measured flits: 7712 (1 flits)
Class 0:
Remaining flits: 7712 (1 flits)
Measured flits: 7712 (1 flits)
Class 0:
Remaining flits: 7712 (1 flits)
Measured flits: 7712 (1 flits)
Class 0:
Remaining flits: 7712 (1 flits)
Measured flits: 7712 (1 flits)
Class 0:
Remaining flits: 7712 (1 flits)
Measured flits: 7712 (1 flits)
Class 0:
Remaining flits: 7712 (1 flits)
Measured flits: 7712 (1 flits)
Class 0:
Remaining flits: 7712 (1 flits)
Measured flits: 7712 (1 flits)
Class 0:
Remaining flits: 7712 (1 flits)
Measured flits: 7712 (1 flits)
Class 0:
Remaining flits: 7712 (1 flits)
Measured flits: 7712 (1 flits)
Class 0:
Remaining flits: 7712 (1 flits)
Measured flits: 7712 (1 flits)
Class 0:
Remaining flits: 7712 (1 flits)
Measured flits: 7712 (1 flits)
Class 0:
Remaining flits: 7712 (1 flits)
Measured flits: 7712 (1 flits)
Class 0:
Remaining flits: 7712 (1 flits)
Measured flits: 7712 (1 flits)
Class 0:
Remaining flits: 7712 (1 flits)
Measured flits: 7712 (1 flits)
Class 0:
Remaining flits: 7712 (1 flits)
Measured flits: 7712 (1 flits)
Class 0:
Remaining flits: 7712 (1 flits)
Measured flits: 7712 (1 flits)
Class 0:
Remaining flits: 7712 (1 flits)
Measured flits: 7712 (1 flits)
Class 0:
Remaining flits: 7712 (1 flits)
Measured flits: 7712 (1 flits)
Class 0:
Remaining flits: 7712 (1 flits)
Measured flits: 7712 (1 flits)
Class 0:
Remaining flits: 7712 (1 flits)
Measured flits: 7712 (1 flits)
Class 0:
Remaining flits: 7712 (1 flits)
Measured flits: 7712 (1 flits)
Class 0:
Remaining flits: 7712 (1 flits)
Measured flits: 7712 (1 flits)
Class 0:
Remaining flits: 7712 (1 flits)
Measured flits: 7712 (1 flits)
Class 0:
Remaining flits: 7712 (1 flits)
Measured flits: 7712 (1 flits)
Class 0:
Remaining flits: 7712 (1 flits)
Measured flits: 7712 (1 flits)
Class 0:
Remaining flits: 7712 (1 flits)
Measured flits: 7712 (1 flits)
Class 0:
Remaining flits: 7712 (1 flits)
Measured flits: 7712 (1 flits)
Class 0:
Remaining flits: 7712 (1 flits)
Measured flits: 7712 (1 flits)
Class 0:
Remaining flits: 7712 (1 flits)
Measured flits: 7712 (1 flits)
Class 0:
Remaining flits: 7712 (1 flits)
Measured flits: 7712 (1 flits)
Class 0:
Remaining flits: 7712 (1 flits)
Measured flits: 7712 (1 flits)
Class 0:
Remaining flits: 7712 (1 flits)
Measured flits: 7712 (1 flits)
Class 0:
Remaining flits: 7712 (1 flits)
Measured flits: 7712 (1 flits)
Class 0:
Remaining flits: 7712 (1 flits)
Measured flits: 7712 (1 flits)
Class 0:
Remaining flits: 7712 (1 flits)
Measured flits: 7712 (1 flits)
Class 0:
Remaining flits: 7712 (1 flits)
Measured flits: 7712 (1 flits)
Class 0:
Remaining flits: 7712 (1 flits)
Measured flits: 7712 (1 flits)
Class 0:
Remaining flits: 7712 (1 flits)
Measured flits: 7712 (1 flits)
Class 0:
Remaining flits: 7712 (1 flits)
Measured flits: 7712 (1 flits)
Class 0:
Remaining flits: 7712 (1 flits)
Measured flits: 7712 (1 flits)
Class 0:
Remaining flits: 7712 (1 flits)
Measured flits: 7712 (1 flits)
Class 0:
Remaining flits: 7712 (1 flits)
Measured flits: 7712 (1 flits)
Class 0:
Remaining flits: 7712 (1 flits)
Measured flits: 7712 (1 flits)
Class 0:
Remaining flits: 7712 (1 flits)
Measured flits: 7712 (1 flits)
Class 0:
Remaining flits: 7712 (1 flits)
Measured flits: 7712 (1 flits)
Class 0:
Remaining flits: 7712 (1 flits)
Measured flits: 7712 (1 flits)
Class 0:
Remaining flits: 7712 (1 flits)
Measured flits: 7712 (1 flits)
Class 0:
Remaining flits: 7712 (1 flits)
Measured flits: 7712 (1 flits)
Class 0:
Remaining flits: 7712 (1 flits)
Measured flits: 7712 (1 flits)
Class 0:
Remaining flits: 7712 (1 flits)
Measured flits: 7712 (1 flits)
Class 0:
Remaining flits: 7712 (1 flits)
Measured flits: 7712 (1 flits)
Class 0:
Remaining flits: 7712 (1 flits)
Measured flits: 7712 (1 flits)
Class 0:
Remaining flits: 7712 (1 flits)
Measured flits: 7712 (1 flits)
Class 0:
Remaining flits: 7712 (1 flits)
Measured flits: 7712 (1 flits)
Class 0:
Remaining flits: 7712 (1 flits)
Measured flits: 7712 (1 flits)
Class 0:
Remaining flits: 7712 (1 flits)
Measured flits: 7712 (1 flits)
Class 0:
Remaining flits: 7712 (1 flits)
Measured flits: 7712 (1 flits)
Class 0:
Remaining flits: 7712 (1 flits)
Measured flits: 7712 (1 flits)
Class 0:
Remaining flits: 7712 (1 flits)
Measured flits: 7712 (1 flits)
Class 0:
Remaining flits: 7712 (1 flits)
Measured flits: 7712 (1 flits)
Class 0:
Remaining flits: 7712 (1 flits)
Measured flits: 7712 (1 flits)
Class 0:
Remaining flits: 7712 (1 flits)
Measured flits: 7712 (1 flits)
Class 0:
Remaining flits: 7712 (1 flits)
Measured flits: 7712 (1 flits)
Class 0:
Remaining flits: 7712 (1 flits)
Measured flits: 7712 (1 flits)
Class 0:
Remaining flits: 7712 (1 flits)
Measured flits: 7712 (1 flits)
Class 0:
Remaining flits: 7712 (1 flits)
Measured flits: 7712 (1 flits)
Class 0:
Remaining flits: 7712 (1 flits)
Measured flits: 7712 (1 flits)
Class 0:
Remaining flits: 7712 (1 flits)
Measured flits: 7712 (1 flits)
Class 0:
Remaining flits: 7712 (1 flits)
Measured flits: 7712 (1 flits)
Class 0:
Remaining flits: 7712 (1 flits)
Measured flits: 7712 (1 flits)
Class 0:
Remaining flits: 7712 (1 flits)
Measured flits: 7712 (1 flits)
Class 0:
Remaining flits: 7712 (1 flits)
Measured flits: 7712 (1 flits)
Class 0:
Remaining flits: 7712 (1 flits)
Measured flits: 7712 (1 flits)
Class 0:
Remaining flits: 7712 (1 flits)
Measured flits: 7712 (1 flits)
Class 0:
Remaining flits: 7712 (1 flits)
Measured flits: 7712 (1 flits)
Class 0:
Remaining flits: 7712 (1 flits)
Measured flits: 7712 (1 flits)
Class 0:
Remaining flits: 7712 (1 flits)
Measured flits: 7712 (1 flits)
Class 0:
Remaining flits: 7712 (1 flits)
Measured flits: 7712 (1 flits)
Class 0:
Remaining flits: 7712 (1 flits)
Measured flits: 7712 (1 flits)
Class 0:
Remaining flits: 7712 (1 flits)
Measured flits: 7712 (1 flits)
Class 0:
Remaining flits: 7712 (1 flits)
Measured flits: 7712 (1 flits)
Class 0:
Remaining flits: 7712 (1 flits)
Measured flits: 7712 (1 flits)
Class 0:
Remaining flits: 7712 (1 flits)
Measured flits: 7712 (1 flits)
Class 0:
Remaining flits: 7712 (1 flits)
Measured flits: 7712 (1 flits)
Class 0:
Remaining flits: 7712 (1 flits)
Measured flits: 7712 (1 flits)
Class 0:
Remaining flits: 7712 (1 flits)
Measured flits: 7712 (1 flits)
Class 0:
Remaining flits: 7712 (1 flits)
Measured flits: 7712 (1 flits)
Class 0:
Remaining flits: 7712 (1 flits)
Measured flits: 7712 (1 flits)
Class 0:
Remaining flits: 7712 (1 flits)
Measured flits: 7712 (1 flits)
Class 0:
Remaining flits: 7712 (1 flits)
Measured flits: 7712 (1 flits)
Class 0:
Remaining flits: 7712 (1 flits)
Measured flits: 7712 (1 flits)
Class 0:
Remaining flits: 7712 (1 flits)
Measured flits: 7712 (1 flits)
Class 0:
Remaining flits: 7712 (1 flits)
Measured flits: 7712 (1 flits)
Class 0:
Remaining flits: 7712 (1 flits)
Measured flits: 7712 (1 flits)
Time taken is 8000 cycles
====== Traffic class 0 ======

Total number of flits generated = 7718, changed lanes = 7303
Overall minimum packet latency = 7 (1 samples)
Overall average packet latency = 24.8961 (1 samples)
Overall maximum packet latency = 210 (1 samples)
Overall minimum network latency = 8 (1 samples)
Overall average network latency = 25.8961 (1 samples)
Overall maximum network latency = 211 (1 samples)
Overall minimum flit latency = 8 (1 samples)
Overall average flit latency = 25.9105 (1 samples)
Overall maximum flit latency = 211 (1 samples)
Overall minimum fragmentation = 0 (1 samples)
Overall average fragmentation = 0 (1 samples)
Overall maximum fragmentation = 0 (1 samples)
Overall minimum injected packet rate = 0.06425 (1 samples)
Overall average injected packet rate = 0.0690313 (1 samples)
Overall maximum injected packet rate = 0.07625 (1 samples)
Overall minimum accepted packet rate = 0.063 (1 samples)
Overall average accepted packet rate = 0.0690625 (1 samples)
Overall maximum accepted packet rate = 0.0755 (1 samples)
Overall minimum injected flit rate = 0.06425 (1 samples)
Overall average injected flit rate = 0.0690313 (1 samples)
Overall maximum injected flit rate = 0.07625 (1 samples)
Overall minimum accepted flit rate = 0.063 (1 samples)
Overall average accepted flit rate = 0.0690625 (1 samples)
Overall maximum accepted flit rate = 0.0755 (1 samples)
Overall average injected packet size = 1 (1 samples)
Overall average accepted packet size = 1 (1 samples)
Overall average hops = 3.00498 (1 samples)
Overall throughput of the network (flits/cycle) = 1.92925
Overall throughput of the network (packets/cycle) = 1.92925
Total run time 10.4105
