make: Nothing to be done for 'all'.
Master: Running timer....
Master: Running SRC....
BEGIN Configuration File: ./examples/bitrev
// Topology

topology = torus;
k = 4;
n = 2;

// Routing
routing_function = dim_order;

// Flow control
num_vcs     = 4;
vc_buf_size = 4;
wait_for_tail_credit = 0;

// Router architecture
vc_allocator = islip;
sw_allocator = islip;
alloc_iters  = 1;

credit_delay   = 1;
routing_delay  = 1;
vc_alloc_delay = 1;
sw_alloc_delay = 1;

input_speedup     = 1;
output_speedup    = 1;
internal_speedup  = 1.0;

vc_busy_when_full = 0;

// Traffic
traffic = uniform;
packet_size = 1;

// Simulation
sim_type = throughput;

injection_rate = 0.11;

END Configuration File: ./examples/bitrev
===== Time: 1000 =====
Class 0:
Minimum packet latency = 7
Average packet latency = 25.2234
Maximum packet latency = 182
Minimum network latency = 8
Average network latency = 26.2234
Maximum network latency = 183
Slowest packet = 398
Minimum flit latency = 8
Average flit latency = 26.2234
Maximum flit latency = 183
Slowest flit = 398
Minimum fragmentation = 0
Average fragmentation = 0
Maximum fragmentation = 0
Minimum injected packet rate = 0.092 (at node 8)
Average injected packet rate = 0.10675
Maximum injected packet rate = 0.123 (at node 10)
Minimum accepted packet rate = 0.092 (at node 5)
Average accepted packet rate = 0.104625
Maximum accepted packet rate = 0.117 (at node 2)
Minimum injected flit rate = 0.092 (at node 8)
Average injected flit rate = 0.10675
Maximum injected flit rate = 0.123 (at node 10)
Minimum accepted flit rate = 0.092 (at node 5)
Average accepted flit rate = 0.104625
Maximum accepted flit rate = 0.117 (at node 2)
Total number of injected packets = 1708
Total number of injected flits = 1708
Average injected packet length = 1
Total number of accepted packets = 1674
Total number of accepted flits = 1674
Average accepted packet length = 1
Total in-flight flits = 34 (0 measured)
===== Time: 2000 =====
Class 0:
Minimum packet latency = 7
Average packet latency = 25.082
Maximum packet latency = 182
Minimum network latency = 8
Average network latency = 26.082
Maximum network latency = 183
Slowest packet = 398
Minimum flit latency = 8
Average flit latency = 26.082
Maximum flit latency = 183
Slowest flit = 398
Minimum fragmentation = 0
Average fragmentation = 0
Maximum fragmentation = 0
Minimum injected packet rate = 0.0955 (at node 7)
Average injected packet rate = 0.104938
Maximum injected packet rate = 0.112 (at node 13)
Minimum accepted packet rate = 0.0925 (at node 14)
Average accepted packet rate = 0.103219
Maximum accepted packet rate = 0.1175 (at node 15)
Minimum injected flit rate = 0.0955 (at node 7)
Average injected flit rate = 0.104938
Maximum injected flit rate = 0.112 (at node 13)
Minimum accepted flit rate = 0.0925 (at node 14)
Average accepted flit rate = 0.103219
Maximum accepted flit rate = 0.1175 (at node 15)
Total number of injected packets = 3358
Total number of injected flits = 3358
Average injected packet length = 1
Total number of accepted packets = 3303
Total number of accepted flits = 3303
Average accepted packet length = 1
Total in-flight flits = 55 (0 measured)
===== Time: 3000 =====
Class 0:
Minimum packet latency = 7
Average packet latency = 24.9034
Maximum packet latency = 171
Minimum network latency = 8
Average network latency = 25.9034
Maximum network latency = 172
Slowest packet = 4701
Minimum flit latency = 8
Average flit latency = 25.9034
Maximum flit latency = 172
Slowest flit = 4701
Minimum fragmentation = 0
Average fragmentation = 0
Maximum fragmentation = 0
Minimum injected packet rate = 0.1 (at node 0)
Average injected packet rate = 0.111625
Maximum injected packet rate = 0.124 (at node 6)
Minimum accepted packet rate = 0.094 (at node 5)
Average accepted packet rate = 0.112625
Maximum accepted packet rate = 0.137 (at node 2)
Minimum injected flit rate = 0.1 (at node 0)
Average injected flit rate = 0.111625
Maximum injected flit rate = 0.124 (at node 6)
Minimum accepted flit rate = 0.094 (at node 5)
Average accepted flit rate = 0.112625
Maximum accepted flit rate = 0.137 (at node 2)
Total number of injected packets = 1786
Total number of injected flits = 1786
Average injected packet length = 1
Total number of accepted packets = 1802
Total number of accepted flits = 1802
Average accepted packet length = 1
Total in-flight flits = 39 (0 measured)
===== Time: 4000 =====
Class 0:
Minimum packet latency = 7
Average packet latency = 24.5306
Maximum packet latency = 84
Minimum network latency = 8
Average network latency = 25.5306
Maximum network latency = 85
Slowest packet = 6535
Minimum flit latency = 8
Average flit latency = 25.6745
Maximum flit latency = 85
Slowest flit = 6450
Minimum fragmentation = 0
Average fragmentation = 0
Maximum fragmentation = 0
Minimum injected packet rate = 0.081 (at node 0)
Average injected packet rate = 0.110625
Maximum injected packet rate = 0.14 (at node 15)
Minimum accepted packet rate = 0.087 (at node 4)
Average accepted packet rate = 0.109625
Maximum accepted packet rate = 0.124 (at node 5)
Minimum injected flit rate = 0.081 (at node 0)
Average injected flit rate = 0.110625
Maximum injected flit rate = 0.14 (at node 15)
Minimum accepted flit rate = 0.087 (at node 4)
Average accepted flit rate = 0.109625
Maximum accepted flit rate = 0.124 (at node 5)
Total number of injected packets = 1770
Total number of injected flits = 1770
Average injected packet length = 1
Total number of accepted packets = 1754
Total number of accepted flits = 1754
Average accepted packet length = 1
Total in-flight flits = 55 (55 measured)
===== Time: 5000 =====
Class 0:
Minimum packet latency = 7
Average packet latency = 25.0098
Maximum packet latency = 158
Minimum network latency = 8
Average network latency = 26.0098
Maximum network latency = 159
Slowest packet = 6896
Minimum flit latency = 8
Average flit latency = 26.0768
Maximum flit latency = 159
Slowest flit = 6896
Minimum fragmentation = 0
Average fragmentation = 0
Maximum fragmentation = 0
Minimum injected packet rate = 0.096 (at node 14)
Average injected packet rate = 0.109313
Maximum injected packet rate = 0.132 (at node 15)
Minimum accepted packet rate = 0.094 (at node 4)
Average accepted packet rate = 0.109094
Maximum accepted packet rate = 0.1215 (at node 8)
Minimum injected flit rate = 0.096 (at node 14)
Average injected flit rate = 0.109313
Maximum injected flit rate = 0.132 (at node 15)
Minimum accepted flit rate = 0.094 (at node 4)
Average accepted flit rate = 0.109094
Maximum accepted flit rate = 0.1215 (at node 8)
Total number of injected packets = 3498
Total number of injected flits = 3498
Average injected packet length = 1
Total number of accepted packets = 3491
Total number of accepted flits = 3491
Average accepted packet length = 1
Total in-flight flits = 46 (46 measured)
===== Time: 6000 =====
Class 0:
Minimum packet latency = 7
Average packet latency = 24.986
Maximum packet latency = 280
Minimum network latency = 8
Average network latency = 25.986
Maximum network latency = 281
Slowest packet = 9810
Minimum flit latency = 8
Average flit latency = 26.0307
Maximum flit latency = 281
Slowest flit = 9810
Minimum fragmentation = 0
Average fragmentation = 0
Maximum fragmentation = 0
Minimum injected packet rate = 0.101333 (at node 0)
Average injected packet rate = 0.109417
Maximum injected packet rate = 0.126 (at node 15)
Minimum accepted packet rate = 0.0936667 (at node 4)
Average accepted packet rate = 0.109313
Maximum accepted packet rate = 0.119 (at node 8)
Minimum injected flit rate = 0.101333 (at node 0)
Average injected flit rate = 0.109417
Maximum injected flit rate = 0.126 (at node 15)
Minimum accepted flit rate = 0.0936667 (at node 4)
Average accepted flit rate = 0.109313
Maximum accepted flit rate = 0.119 (at node 8)
Total number of injected packets = 5252
Total number of injected flits = 5252
Average injected packet length = 1
Total number of accepted packets = 5247
Total number of accepted flits = 5247
Average accepted packet length = 1
Total in-flight flits = 44 (44 measured)
Draining remaining packets ...
Class 0:
Remaining flits: 10255 10310 10326 10330 10361 10362 10366 10367 10371 10372 [...] (30 flits)
Measured flits: 10255 10310 10326 10330 10361 10362 10366 10367 10371 10372 [...] (30 flits)
Class 0:
Remaining flits: 10255 10310 10330 10361 10362 10366 10376 10379 10384 10387 [...] (16 flits)
Measured flits: 10255 10310 10330 10361 10362 10366 10376 10379 10384 10387 [...] (16 flits)
Class 0:
Remaining flits: 10255 10310 10330 10361 10362 10366 10384 10390 10391 10393 (10 flits)
Measured flits: 10255 10310 10330 10361 10362 10366 10384 10390 10391 10393 (10 flits)
Class 0:
Remaining flits: 10310 10330 10361 10362 10366 10391 (6 flits)
Measured flits: 10310 10330 10361 10362 10366 10391 (6 flits)
Class 0:
Remaining flits: 10310 10330 10361 10362 10366 (5 flits)
Measured flits: 10310 10330 10361 10362 10366 (5 flits)
Class 0:
Remaining flits: 10310 10330 10361 10362 10366 (5 flits)
Measured flits: 10310 10330 10361 10362 10366 (5 flits)
Class 0:
Remaining flits: 10310 10330 10361 10362 10366 (5 flits)
Measured flits: 10310 10330 10361 10362 10366 (5 flits)
Class 0:
Remaining flits: 10310 10330 10361 10362 10366 (5 flits)
Measured flits: 10310 10330 10361 10362 10366 (5 flits)
Class 0:
Remaining flits: 10310 10330 10361 10362 10366 (5 flits)
Measured flits: 10310 10330 10361 10362 10366 (5 flits)
Class 0:
Remaining flits: 10310 10330 10361 10362 10366 (5 flits)
Measured flits: 10310 10330 10361 10362 10366 (5 flits)
Class 0:
Remaining flits: 10310 10330 10361 10362 10366 (5 flits)
Measured flits: 10310 10330 10361 10362 10366 (5 flits)
Class 0:
Remaining flits: 10310 10330 10361 10362 10366 (5 flits)
Measured flits: 10310 10330 10361 10362 10366 (5 flits)
Class 0:
Remaining flits: 10310 10330 10361 10362 10366 (5 flits)
Measured flits: 10310 10330 10361 10362 10366 (5 flits)
Class 0:
Remaining flits: 10310 10330 10361 10362 10366 (5 flits)
Measured flits: 10310 10330 10361 10362 10366 (5 flits)
Class 0:
Remaining flits: 10310 10330 10361 10362 10366 (5 flits)
Measured flits: 10310 10330 10361 10362 10366 (5 flits)
Class 0:
Remaining flits: 10310 10330 10361 10362 10366 (5 flits)
Measured flits: 10310 10330 10361 10362 10366 (5 flits)
Class 0:
Remaining flits: 10310 10330 10361 10362 10366 (5 flits)
Measured flits: 10310 10330 10361 10362 10366 (5 flits)
Class 0:
Remaining flits: 10310 10330 10361 10362 10366 (5 flits)
Measured flits: 10310 10330 10361 10362 10366 (5 flits)
Class 0:
Remaining flits: 10310 10330 10361 10362 10366 (5 flits)
Measured flits: 10310 10330 10361 10362 10366 (5 flits)
Class 0:
Remaining flits: 10310 10330 10361 10362 10366 (5 flits)
Measured flits: 10310 10330 10361 10362 10366 (5 flits)
Class 0:
Remaining flits: 10310 10330 10361 10362 10366 (5 flits)
Measured flits: 10310 10330 10361 10362 10366 (5 flits)
Class 0:
Remaining flits: 10310 10330 10361 10362 10366 (5 flits)
Measured flits: 10310 10330 10361 10362 10366 (5 flits)
Class 0:
Remaining flits: 10310 10330 10361 10362 10366 (5 flits)
Measured flits: 10310 10330 10361 10362 10366 (5 flits)
Class 0:
Remaining flits: 10310 10330 10361 10362 10366 (5 flits)
Measured flits: 10310 10330 10361 10362 10366 (5 flits)
Class 0:
Remaining flits: 10310 10330 10361 10362 10366 (5 flits)
Measured flits: 10310 10330 10361 10362 10366 (5 flits)
Class 0:
Remaining flits: 10310 10330 10361 10362 10366 (5 flits)
Measured flits: 10310 10330 10361 10362 10366 (5 flits)
Class 0:
Remaining flits: 10310 10330 10361 10362 10366 (5 flits)
Measured flits: 10310 10330 10361 10362 10366 (5 flits)
Class 0:
Remaining flits: 10310 10330 10361 10362 10366 (5 flits)
Measured flits: 10310 10330 10361 10362 10366 (5 flits)
Class 0:
Remaining flits: 10310 10330 10361 10362 10366 (5 flits)
Measured flits: 10310 10330 10361 10362 10366 (5 flits)
Class 0:
Remaining flits: 10310 10330 10361 10362 10366 (5 flits)
Measured flits: 10310 10330 10361 10362 10366 (5 flits)
Class 0:
Remaining flits: 10310 10330 10361 10362 10366 (5 flits)
Measured flits: 10310 10330 10361 10362 10366 (5 flits)
Class 0:
Remaining flits: 10310 10330 10361 10362 10366 (5 flits)
Measured flits: 10310 10330 10361 10362 10366 (5 flits)
Class 0:
Remaining flits: 10310 10330 10361 10362 10366 (5 flits)
Measured flits: 10310 10330 10361 10362 10366 (5 flits)
Class 0:
Remaining flits: 10310 10330 10361 10362 10366 (5 flits)
Measured flits: 10310 10330 10361 10362 10366 (5 flits)
Class 0:
Remaining flits: 10310 10330 10361 10362 10366 (5 flits)
Measured flits: 10310 10330 10361 10362 10366 (5 flits)
Class 0:
Remaining flits: 10310 10330 10361 10362 10366 (5 flits)
Measured flits: 10310 10330 10361 10362 10366 (5 flits)
Class 0:
Remaining flits: 10310 10330 10361 10362 10366 (5 flits)
Measured flits: 10310 10330 10361 10362 10366 (5 flits)
Class 0:
Remaining flits: 10310 10330 10361 10362 10366 (5 flits)
Measured flits: 10310 10330 10361 10362 10366 (5 flits)
Class 0:
Remaining flits: 10310 10330 10361 10362 10366 (5 flits)
Measured flits: 10310 10330 10361 10362 10366 (5 flits)
Class 0:
Remaining flits: 10310 10330 10361 10362 10366 (5 flits)
Measured flits: 10310 10330 10361 10362 10366 (5 flits)
Class 0:
Remaining flits: 10310 10330 10361 10362 10366 (5 flits)
Measured flits: 10310 10330 10361 10362 10366 (5 flits)
Class 0:
Remaining flits: 10310 10330 10361 10362 10366 (5 flits)
Measured flits: 10310 10330 10361 10362 10366 (5 flits)
Class 0:
Remaining flits: 10310 10330 10361 10362 10366 (5 flits)
Measured flits: 10310 10330 10361 10362 10366 (5 flits)
Class 0:
Remaining flits: 10310 10330 10361 10362 10366 (5 flits)
Measured flits: 10310 10330 10361 10362 10366 (5 flits)
Class 0:
Remaining flits: 10310 10330 10361 10362 10366 (5 flits)
Measured flits: 10310 10330 10361 10362 10366 (5 flits)
Class 0:
Remaining flits: 10310 10330 10361 10362 10366 (5 flits)
Measured flits: 10310 10330 10361 10362 10366 (5 flits)
Class 0:
Remaining flits: 10310 10330 10361 10362 10366 (5 flits)
Measured flits: 10310 10330 10361 10362 10366 (5 flits)
Class 0:
Remaining flits: 10310 10330 10361 10362 10366 (5 flits)
Measured flits: 10310 10330 10361 10362 10366 (5 flits)
Class 0:
Remaining flits: 10310 10330 10361 10362 10366 (5 flits)
Measured flits: 10310 10330 10361 10362 10366 (5 flits)
Class 0:
Remaining flits: 10310 10330 10361 10362 10366 (5 flits)
Measured flits: 10310 10330 10361 10362 10366 (5 flits)
Class 0:
Remaining flits: 10310 10330 10361 10362 10366 (5 flits)
Measured flits: 10310 10330 10361 10362 10366 (5 flits)
Class 0:
Remaining flits: 10310 10330 10361 10362 10366 (5 flits)
Measured flits: 10310 10330 10361 10362 10366 (5 flits)
Class 0:
Remaining flits: 10310 10330 10361 10362 10366 (5 flits)
Measured flits: 10310 10330 10361 10362 10366 (5 flits)
Class 0:
Remaining flits: 10310 10330 10361 10362 10366 (5 flits)
Measured flits: 10310 10330 10361 10362 10366 (5 flits)
Class 0:
Remaining flits: 10310 10330 10361 10362 10366 (5 flits)
Measured flits: 10310 10330 10361 10362 10366 (5 flits)
Class 0:
Remaining flits: 10310 10330 10361 10362 10366 (5 flits)
Measured flits: 10310 10330 10361 10362 10366 (5 flits)
Class 0:
Remaining flits: 10310 10330 10361 10362 10366 (5 flits)
Measured flits: 10310 10330 10361 10362 10366 (5 flits)
Class 0:
Remaining flits: 10310 10330 10361 10362 10366 (5 flits)
Measured flits: 10310 10330 10361 10362 10366 (5 flits)
Class 0:
Remaining flits: 10310 10330 10361 10362 10366 (5 flits)
Measured flits: 10310 10330 10361 10362 10366 (5 flits)
Class 0:
Remaining flits: 10310 10330 10361 10362 10366 (5 flits)
Measured flits: 10310 10330 10361 10362 10366 (5 flits)
Class 0:
Remaining flits: 10310 10330 10361 10362 10366 (5 flits)
Measured flits: 10310 10330 10361 10362 10366 (5 flits)
Class 0:
Remaining flits: 10310 10330 10361 10362 10366 (5 flits)
Measured flits: 10310 10330 10361 10362 10366 (5 flits)
Class 0:
Remaining flits: 10310 10330 10361 10362 10366 (5 flits)
Measured flits: 10310 10330 10361 10362 10366 (5 flits)
Class 0:
Remaining flits: 10310 10330 10361 10362 10366 (5 flits)
Measured flits: 10310 10330 10361 10362 10366 (5 flits)
Class 0:
Remaining flits: 10310 10330 10361 10362 10366 (5 flits)
Measured flits: 10310 10330 10361 10362 10366 (5 flits)
Class 0:
Remaining flits: 10310 10330 10361 10362 10366 (5 flits)
Measured flits: 10310 10330 10361 10362 10366 (5 flits)
Class 0:
Remaining flits: 10310 10330 10361 10362 10366 (5 flits)
Measured flits: 10310 10330 10361 10362 10366 (5 flits)
Class 0:
Remaining flits: 10310 10330 10361 10362 10366 (5 flits)
Measured flits: 10310 10330 10361 10362 10366 (5 flits)
Class 0:
Remaining flits: 10310 10330 10361 10362 10366 (5 flits)
Measured flits: 10310 10330 10361 10362 10366 (5 flits)
Class 0:
Remaining flits: 10310 10330 10361 10362 10366 (5 flits)
Measured flits: 10310 10330 10361 10362 10366 (5 flits)
Class 0:
Remaining flits: 10310 10330 10361 10362 10366 (5 flits)
Measured flits: 10310 10330 10361 10362 10366 (5 flits)
Class 0:
Remaining flits: 10310 10330 10361 10362 10366 (5 flits)
Measured flits: 10310 10330 10361 10362 10366 (5 flits)
Class 0:
Remaining flits: 10310 10330 10361 10362 10366 (5 flits)
Measured flits: 10310 10330 10361 10362 10366 (5 flits)
Class 0:
Remaining flits: 10310 10330 10361 10362 10366 (5 flits)
Measured flits: 10310 10330 10361 10362 10366 (5 flits)
Class 0:
Remaining flits: 10310 10330 10361 10362 10366 (5 flits)
Measured flits: 10310 10330 10361 10362 10366 (5 flits)
Class 0:
Remaining flits: 10310 10330 10361 10362 10366 (5 flits)
Measured flits: 10310 10330 10361 10362 10366 (5 flits)
Class 0:
Remaining flits: 10310 10330 10361 10362 10366 (5 flits)
Measured flits: 10310 10330 10361 10362 10366 (5 flits)
Class 0:
Remaining flits: 10310 10330 10361 10362 10366 (5 flits)
Measured flits: 10310 10330 10361 10362 10366 (5 flits)
Class 0:
Remaining flits: 10310 10330 10361 10362 10366 (5 flits)
Measured flits: 10310 10330 10361 10362 10366 (5 flits)
Class 0:
Remaining flits: 10310 10330 10361 10362 10366 (5 flits)
Measured flits: 10310 10330 10361 10362 10366 (5 flits)
Class 0:
Remaining flits: 10310 10330 10361 10362 10366 (5 flits)
Measured flits: 10310 10330 10361 10362 10366 (5 flits)
Class 0:
Remaining flits: 10310 10330 10361 10362 10366 (5 flits)
Measured flits: 10310 10330 10361 10362 10366 (5 flits)
Class 0:
Remaining flits: 10310 10330 10361 10362 10366 (5 flits)
Measured flits: 10310 10330 10361 10362 10366 (5 flits)
Class 0:
Remaining flits: 10310 10330 10361 10362 10366 (5 flits)
Measured flits: 10310 10330 10361 10362 10366 (5 flits)
Class 0:
Remaining flits: 10310 10330 10361 10362 10366 (5 flits)
Measured flits: 10310 10330 10361 10362 10366 (5 flits)
Class 0:
Remaining flits: 10310 10330 10361 10362 10366 (5 flits)
Measured flits: 10310 10330 10361 10362 10366 (5 flits)
Class 0:
Remaining flits: 10310 10330 10361 10362 10366 (5 flits)
Measured flits: 10310 10330 10361 10362 10366 (5 flits)
Class 0:
Remaining flits: 10310 10330 10361 10362 10366 (5 flits)
Measured flits: 10310 10330 10361 10362 10366 (5 flits)
Class 0:
Remaining flits: 10310 10330 10361 10362 10366 (5 flits)
Measured flits: 10310 10330 10361 10362 10366 (5 flits)
Class 0:
Remaining flits: 10310 10330 10361 10362 10366 (5 flits)
Measured flits: 10310 10330 10361 10362 10366 (5 flits)
Class 0:
Remaining flits: 10310 10330 10361 10362 10366 (5 flits)
Measured flits: 10310 10330 10361 10362 10366 (5 flits)
Class 0:
Remaining flits: 10310 10330 10361 10362 10366 (5 flits)
Measured flits: 10310 10330 10361 10362 10366 (5 flits)
Class 0:
Remaining flits: 10310 10330 10361 10362 10366 (5 flits)
Measured flits: 10310 10330 10361 10362 10366 (5 flits)
Class 0:
Remaining flits: 10310 10330 10361 10362 10366 (5 flits)
Measured flits: 10310 10330 10361 10362 10366 (5 flits)
Class 0:
Remaining flits: 10310 10330 10361 10362 10366 (5 flits)
Measured flits: 10310 10330 10361 10362 10366 (5 flits)
Class 0:
Remaining flits: 10310 10330 10361 10362 10366 (5 flits)
Measured flits: 10310 10330 10361 10362 10366 (5 flits)
Class 0:
Remaining flits: 10310 10330 10361 10362 10366 (5 flits)
Measured flits: 10310 10330 10361 10362 10366 (5 flits)
Class 0:
Remaining flits: 10310 10330 10361 10362 10366 (5 flits)
Measured flits: 10310 10330 10361 10362 10366 (5 flits)
Class 0:
Remaining flits: 10310 10330 10361 10362 10366 (5 flits)
Measured flits: 10310 10330 10361 10362 10366 (5 flits)
Class 0:
Remaining flits: 10310 10330 10361 10362 10366 (5 flits)
Measured flits: 10310 10330 10361 10362 10366 (5 flits)
Class 0:
Remaining flits: 10310 10330 10361 10362 10366 (5 flits)
Measured flits: 10310 10330 10361 10362 10366 (5 flits)
Time taken is 7000 cycles
====== Traffic class 0 ======

Total number of flits generated = 10396, changed lanes = 9895
Overall minimum packet latency = 7 (1 samples)
Overall average packet latency = 25.0242 (1 samples)
Overall maximum packet latency = 280 (1 samples)
Overall minimum network latency = 8 (1 samples)
Overall average network latency = 26.0242 (1 samples)
Overall maximum network latency = 281 (1 samples)
Overall minimum flit latency = 8 (1 samples)
Overall average flit latency = 26.0683 (1 samples)
Overall maximum flit latency = 281 (1 samples)
Overall minimum fragmentation = 0 (1 samples)
Overall average fragmentation = 0 (1 samples)
Overall maximum fragmentation = 0 (1 samples)
Overall minimum injected packet rate = 0.101333 (1 samples)
Overall average injected packet rate = 0.109417 (1 samples)
Overall maximum injected packet rate = 0.126 (1 samples)
Overall minimum accepted packet rate = 0.0936667 (1 samples)
Overall average accepted packet rate = 0.109313 (1 samples)
Overall maximum accepted packet rate = 0.119 (1 samples)
Overall minimum injected flit rate = 0.101333 (1 samples)
Overall average injected flit rate = 0.109417 (1 samples)
Overall maximum injected flit rate = 0.126 (1 samples)
Overall minimum accepted flit rate = 0.0936667 (1 samples)
Overall average accepted flit rate = 0.109313 (1 samples)
Overall maximum accepted flit rate = 0.119 (1 samples)
Overall average injected packet size = 1 (1 samples)
Overall average accepted packet size = 1 (1 samples)
Overall average hops = 2.99466 (1 samples)
Overall throughput of the network (flits/cycle) = 3.46367
Overall throughput of the network (packets/cycle) = 3.46367
Total run time 13.0295
