make: Nothing to be done for 'all'.
Master: Running timer....
Master: Running SRC....
BEGIN Configuration File: ./examples/bitrev
// Topology

topology = torus;
k = 4;
n = 2;

// Routing
routing_function = dim_order;

// Flow control
num_vcs     = 4;
vc_buf_size = 4;
wait_for_tail_credit = 0;

// Router architecture
vc_allocator = islip;
sw_allocator = islip;
alloc_iters  = 1;

credit_delay   = 1;
routing_delay  = 1;
vc_alloc_delay = 1;
sw_alloc_delay = 1;

input_speedup     = 1;
output_speedup    = 1;
internal_speedup  = 1.0;

vc_busy_when_full = 0;

// Traffic
traffic = uniform;
packet_size = 1;

// Simulation
sim_type = throughput;

injection_rate = 0.19;

END Configuration File: ./examples/bitrev
===== Time: 1000 =====
Class 0:
Minimum packet latency = 7
Average packet latency = 25.3903
Maximum packet latency = 105
Minimum network latency = 8
Average network latency = 26.3903
Maximum network latency = 106
Slowest packet = 2537
Minimum flit latency = 8
Average flit latency = 26.3903
Maximum flit latency = 106
Slowest flit = 2537
Minimum fragmentation = 0
Average fragmentation = 0
Maximum fragmentation = 0
Minimum injected packet rate = 0.164 (at node 7)
Average injected packet rate = 0.184562
Maximum injected packet rate = 0.202 (at node 10)
Minimum accepted packet rate = 0.156 (at node 14)
Average accepted packet rate = 0.180938
Maximum accepted packet rate = 0.202 (at node 15)
Minimum injected flit rate = 0.164 (at node 7)
Average injected flit rate = 0.184562
Maximum injected flit rate = 0.202 (at node 10)
Minimum accepted flit rate = 0.156 (at node 14)
Average accepted flit rate = 0.180938
Maximum accepted flit rate = 0.202 (at node 15)
Total number of injected packets = 2953
Total number of injected flits = 2953
Average injected packet length = 1
Total number of accepted packets = 2895
Total number of accepted flits = 2895
Average accepted packet length = 1
Total in-flight flits = 58 (0 measured)
===== Time: 2000 =====
Class 0:
Minimum packet latency = 7
Average packet latency = 25.1172
Maximum packet latency = 118
Minimum network latency = 8
Average network latency = 26.1172
Maximum network latency = 119
Slowest packet = 4635
Minimum flit latency = 8
Average flit latency = 26.1172
Maximum flit latency = 119
Slowest flit = 4635
Minimum fragmentation = 0
Average fragmentation = 0
Maximum fragmentation = 0
Minimum injected packet rate = 0.1615 (at node 7)
Average injected packet rate = 0.184812
Maximum injected packet rate = 0.199 (at node 2)
Minimum accepted packet rate = 0.1585 (at node 14)
Average accepted packet rate = 0.182625
Maximum accepted packet rate = 0.1995 (at node 15)
Minimum injected flit rate = 0.1615 (at node 7)
Average injected flit rate = 0.184812
Maximum injected flit rate = 0.199 (at node 2)
Minimum accepted flit rate = 0.1585 (at node 14)
Average accepted flit rate = 0.182625
Maximum accepted flit rate = 0.1995 (at node 15)
Total number of injected packets = 5914
Total number of injected flits = 5914
Average injected packet length = 1
Total number of accepted packets = 5844
Total number of accepted flits = 5844
Average accepted packet length = 1
Total in-flight flits = 70 (0 measured)
===== Time: 3000 =====
Class 0:
Minimum packet latency = 7
Average packet latency = 25.2672
Maximum packet latency = 142
Minimum network latency = 8
Average network latency = 26.2672
Maximum network latency = 143
Slowest packet = 8133
Minimum flit latency = 8
Average flit latency = 26.2672
Maximum flit latency = 143
Slowest flit = 8133
Minimum fragmentation = 0
Average fragmentation = 0
Maximum fragmentation = 0
Minimum injected packet rate = 0.178 (at node 0)
Average injected packet rate = 0.188812
Maximum injected packet rate = 0.207 (at node 6)
Minimum accepted packet rate = 0.166 (at node 13)
Average accepted packet rate = 0.188562
Maximum accepted packet rate = 0.214 (at node 9)
Minimum injected flit rate = 0.178 (at node 0)
Average injected flit rate = 0.188812
Maximum injected flit rate = 0.207 (at node 6)
Minimum accepted flit rate = 0.166 (at node 13)
Average accepted flit rate = 0.188562
Maximum accepted flit rate = 0.214 (at node 9)
Total number of injected packets = 3021
Total number of injected flits = 3021
Average injected packet length = 1
Total number of accepted packets = 3017
Total number of accepted flits = 3017
Average accepted packet length = 1
Total in-flight flits = 74 (0 measured)
===== Time: 4000 =====
Class 0:
Minimum packet latency = 7
Average packet latency = 25.6401
Maximum packet latency = 127
Minimum network latency = 8
Average network latency = 26.6401
Maximum network latency = 128
Slowest packet = 9545
Minimum flit latency = 8
Average flit latency = 26.7148
Maximum flit latency = 128
Slowest flit = 9545
Minimum fragmentation = 0
Average fragmentation = 0
Maximum fragmentation = 0
Minimum injected packet rate = 0.161 (at node 14)
Average injected packet rate = 0.191
Maximum injected packet rate = 0.217 (at node 15)
Minimum accepted packet rate = 0.158 (at node 4)
Average accepted packet rate = 0.190438
Maximum accepted packet rate = 0.208 (at node 9)
Minimum injected flit rate = 0.161 (at node 14)
Average injected flit rate = 0.191
Maximum injected flit rate = 0.217 (at node 15)
Minimum accepted flit rate = 0.158 (at node 4)
Average accepted flit rate = 0.190438
Maximum accepted flit rate = 0.208 (at node 9)
Total number of injected packets = 3056
Total number of injected flits = 3056
Average injected packet length = 1
Total number of accepted packets = 3047
Total number of accepted flits = 3047
Average accepted packet length = 1
Total in-flight flits = 83 (83 measured)
===== Time: 5000 =====
Class 0:
Minimum packet latency = 7
Average packet latency = 25.7841
Maximum packet latency = 133
Minimum network latency = 8
Average network latency = 26.7836
Maximum network latency = 134
Slowest packet = 13900
Minimum flit latency = 8
Average flit latency = 26.8198
Maximum flit latency = 134
Slowest flit = 13900
Minimum fragmentation = 0
Average fragmentation = 0
Maximum fragmentation = 0
Minimum injected packet rate = 0.1685 (at node 14)
Average injected packet rate = 0.187781
Maximum injected packet rate = 0.2015 (at node 15)
Minimum accepted packet rate = 0.1655 (at node 4)
Average accepted packet rate = 0.187469
Maximum accepted packet rate = 0.199 (at node 9)
Minimum injected flit rate = 0.1685 (at node 14)
Average injected flit rate = 0.187781
Maximum injected flit rate = 0.2015 (at node 15)
Minimum accepted flit rate = 0.1655 (at node 4)
Average accepted flit rate = 0.187469
Maximum accepted flit rate = 0.199 (at node 9)
Total number of injected packets = 6009
Total number of injected flits = 6009
Average injected packet length = 1
Total number of accepted packets = 5999
Total number of accepted flits = 5999
Average accepted packet length = 1
Total in-flight flits = 84 (84 measured)
===== Time: 6000 =====
Class 0:
Minimum packet latency = 7
Average packet latency = 25.5516
Maximum packet latency = 133
Minimum network latency = 8
Average network latency = 26.5512
Maximum network latency = 134
Slowest packet = 13900
Minimum flit latency = 8
Average flit latency = 26.577
Maximum flit latency = 134
Slowest flit = 13900
Minimum fragmentation = 0
Average fragmentation = 0
Maximum fragmentation = 0
Minimum injected packet rate = 0.173333 (at node 14)
Average injected packet rate = 0.189146
Maximum injected packet rate = 0.203 (at node 15)
Minimum accepted packet rate = 0.162333 (at node 4)
Average accepted packet rate = 0.189229
Maximum accepted packet rate = 0.198 (at node 14)
Minimum injected flit rate = 0.173333 (at node 14)
Average injected flit rate = 0.189146
Maximum injected flit rate = 0.203 (at node 15)
Minimum accepted flit rate = 0.162333 (at node 4)
Average accepted flit rate = 0.189229
Maximum accepted flit rate = 0.198 (at node 14)
Total number of injected packets = 9079
Total number of injected flits = 9079
Average injected packet length = 1
Total number of accepted packets = 9083
Total number of accepted flits = 9083
Average accepted packet length = 1
Total in-flight flits = 70 (70 measured)
Draining remaining packets ...
Class 0:
Remaining flits: 17781 17826 17874 17935 17936 17945 17947 17953 17955 17959 [...] (47 flits)
Measured flits: 17781 17826 17874 17935 17936 17945 17947 17953 17955 17959 [...] (47 flits)
Class 0:
Remaining flits: 17781 17826 17874 17955 17986 17988 17991 17993 17995 17997 [...] (20 flits)
Measured flits: 17781 17826 17874 17955 17986 17988 17991 17993 17995 17997 [...] (20 flits)
Class 0:
Remaining flits: 17781 17826 17874 17986 17995 17999 18002 18005 18006 18012 (10 flits)
Measured flits: 17781 17826 17874 17986 17995 17999 18002 18005 18006 18012 (10 flits)
Class 0:
Remaining flits: 17781 17826 17874 17995 17999 18012 (6 flits)
Measured flits: 17781 17826 17874 17995 17999 18012 (6 flits)
Class 0:
Remaining flits: 17781 17826 17874 17995 17999 18012 (6 flits)
Measured flits: 17781 17826 17874 17995 17999 18012 (6 flits)
Class 0:
Remaining flits: 17781 17826 17874 17995 17999 18012 (6 flits)
Measured flits: 17781 17826 17874 17995 17999 18012 (6 flits)
Class 0:
Remaining flits: 17781 17826 17874 17995 17999 18012 (6 flits)
Measured flits: 17781 17826 17874 17995 17999 18012 (6 flits)
Class 0:
Remaining flits: 17781 17826 17874 17995 17999 18012 (6 flits)
Measured flits: 17781 17826 17874 17995 17999 18012 (6 flits)
Class 0:
Remaining flits: 17781 17826 17874 17995 17999 18012 (6 flits)
Measured flits: 17781 17826 17874 17995 17999 18012 (6 flits)
Class 0:
Remaining flits: 17781 17826 17874 17995 17999 18012 (6 flits)
Measured flits: 17781 17826 17874 17995 17999 18012 (6 flits)
Class 0:
Remaining flits: 17781 17826 17874 17995 17999 18012 (6 flits)
Measured flits: 17781 17826 17874 17995 17999 18012 (6 flits)
Class 0:
Remaining flits: 17781 17826 17874 17995 17999 18012 (6 flits)
Measured flits: 17781 17826 17874 17995 17999 18012 (6 flits)
Class 0:
Remaining flits: 17781 17826 17874 17995 17999 18012 (6 flits)
Measured flits: 17781 17826 17874 17995 17999 18012 (6 flits)
Class 0:
Remaining flits: 17781 17826 17874 17995 17999 18012 (6 flits)
Measured flits: 17781 17826 17874 17995 17999 18012 (6 flits)
Class 0:
Remaining flits: 17781 17826 17874 17995 17999 18012 (6 flits)
Measured flits: 17781 17826 17874 17995 17999 18012 (6 flits)
Class 0:
Remaining flits: 17781 17826 17874 17995 17999 18012 (6 flits)
Measured flits: 17781 17826 17874 17995 17999 18012 (6 flits)
Class 0:
Remaining flits: 17781 17826 17874 17995 17999 18012 (6 flits)
Measured flits: 17781 17826 17874 17995 17999 18012 (6 flits)
Class 0:
Remaining flits: 17781 17826 17874 17995 17999 18012 (6 flits)
Measured flits: 17781 17826 17874 17995 17999 18012 (6 flits)
Class 0:
Remaining flits: 17781 17826 17874 17995 17999 18012 (6 flits)
Measured flits: 17781 17826 17874 17995 17999 18012 (6 flits)
Class 0:
Remaining flits: 17781 17826 17874 17995 17999 18012 (6 flits)
Measured flits: 17781 17826 17874 17995 17999 18012 (6 flits)
Class 0:
Remaining flits: 17781 17826 17874 17995 17999 18012 (6 flits)
Measured flits: 17781 17826 17874 17995 17999 18012 (6 flits)
Class 0:
Remaining flits: 17781 17826 17874 17995 17999 18012 (6 flits)
Measured flits: 17781 17826 17874 17995 17999 18012 (6 flits)
Class 0:
Remaining flits: 17781 17826 17874 17995 17999 18012 (6 flits)
Measured flits: 17781 17826 17874 17995 17999 18012 (6 flits)
Class 0:
Remaining flits: 17781 17826 17874 17995 17999 18012 (6 flits)
Measured flits: 17781 17826 17874 17995 17999 18012 (6 flits)
Class 0:
Remaining flits: 17781 17826 17874 17995 17999 18012 (6 flits)
Measured flits: 17781 17826 17874 17995 17999 18012 (6 flits)
Class 0:
Remaining flits: 17781 17826 17874 17995 17999 18012 (6 flits)
Measured flits: 17781 17826 17874 17995 17999 18012 (6 flits)
Class 0:
Remaining flits: 17781 17826 17874 17995 17999 18012 (6 flits)
Measured flits: 17781 17826 17874 17995 17999 18012 (6 flits)
Class 0:
Remaining flits: 17781 17826 17874 17995 17999 18012 (6 flits)
Measured flits: 17781 17826 17874 17995 17999 18012 (6 flits)
Class 0:
Remaining flits: 17781 17826 17874 17995 17999 18012 (6 flits)
Measured flits: 17781 17826 17874 17995 17999 18012 (6 flits)
Class 0:
Remaining flits: 17781 17826 17874 17995 17999 18012 (6 flits)
Measured flits: 17781 17826 17874 17995 17999 18012 (6 flits)
Class 0:
Remaining flits: 17781 17826 17874 17995 17999 18012 (6 flits)
Measured flits: 17781 17826 17874 17995 17999 18012 (6 flits)
Class 0:
Remaining flits: 17781 17826 17874 17995 17999 18012 (6 flits)
Measured flits: 17781 17826 17874 17995 17999 18012 (6 flits)
Class 0:
Remaining flits: 17781 17826 17874 17995 17999 18012 (6 flits)
Measured flits: 17781 17826 17874 17995 17999 18012 (6 flits)
Class 0:
Remaining flits: 17781 17826 17874 17995 17999 18012 (6 flits)
Measured flits: 17781 17826 17874 17995 17999 18012 (6 flits)
Class 0:
Remaining flits: 17781 17826 17874 17995 17999 18012 (6 flits)
Measured flits: 17781 17826 17874 17995 17999 18012 (6 flits)
Class 0:
Remaining flits: 17781 17826 17874 17995 17999 18012 (6 flits)
Measured flits: 17781 17826 17874 17995 17999 18012 (6 flits)
Class 0:
Remaining flits: 17781 17826 17874 17995 17999 18012 (6 flits)
Measured flits: 17781 17826 17874 17995 17999 18012 (6 flits)
Class 0:
Remaining flits: 17781 17826 17874 17995 17999 18012 (6 flits)
Measured flits: 17781 17826 17874 17995 17999 18012 (6 flits)
Class 0:
Remaining flits: 17781 17826 17874 17995 17999 18012 (6 flits)
Measured flits: 17781 17826 17874 17995 17999 18012 (6 flits)
Class 0:
Remaining flits: 17781 17826 17874 17995 17999 18012 (6 flits)
Measured flits: 17781 17826 17874 17995 17999 18012 (6 flits)
Class 0:
Remaining flits: 17781 17826 17874 17995 17999 18012 (6 flits)
Measured flits: 17781 17826 17874 17995 17999 18012 (6 flits)
Class 0:
Remaining flits: 17781 17826 17874 17995 17999 18012 (6 flits)
Measured flits: 17781 17826 17874 17995 17999 18012 (6 flits)
Class 0:
Remaining flits: 17781 17826 17874 17995 17999 18012 (6 flits)
Measured flits: 17781 17826 17874 17995 17999 18012 (6 flits)
Class 0:
Remaining flits: 17781 17826 17874 17995 17999 18012 (6 flits)
Measured flits: 17781 17826 17874 17995 17999 18012 (6 flits)
Class 0:
Remaining flits: 17781 17826 17874 17995 17999 18012 (6 flits)
Measured flits: 17781 17826 17874 17995 17999 18012 (6 flits)
Class 0:
Remaining flits: 17781 17826 17874 17995 17999 18012 (6 flits)
Measured flits: 17781 17826 17874 17995 17999 18012 (6 flits)
Class 0:
Remaining flits: 17781 17826 17874 17995 17999 18012 (6 flits)
Measured flits: 17781 17826 17874 17995 17999 18012 (6 flits)
Class 0:
Remaining flits: 17781 17826 17874 17995 17999 18012 (6 flits)
Measured flits: 17781 17826 17874 17995 17999 18012 (6 flits)
Class 0:
Remaining flits: 17781 17826 17874 17995 17999 18012 (6 flits)
Measured flits: 17781 17826 17874 17995 17999 18012 (6 flits)
Class 0:
Remaining flits: 17781 17826 17874 17995 17999 18012 (6 flits)
Measured flits: 17781 17826 17874 17995 17999 18012 (6 flits)
Class 0:
Remaining flits: 17781 17826 17874 17995 17999 18012 (6 flits)
Measured flits: 17781 17826 17874 17995 17999 18012 (6 flits)
Class 0:
Remaining flits: 17781 17826 17874 17995 17999 18012 (6 flits)
Measured flits: 17781 17826 17874 17995 17999 18012 (6 flits)
Class 0:
Remaining flits: 17781 17826 17874 17995 17999 18012 (6 flits)
Measured flits: 17781 17826 17874 17995 17999 18012 (6 flits)
Class 0:
Remaining flits: 17781 17826 17874 17995 17999 18012 (6 flits)
Measured flits: 17781 17826 17874 17995 17999 18012 (6 flits)
Class 0:
Remaining flits: 17781 17826 17874 17995 17999 18012 (6 flits)
Measured flits: 17781 17826 17874 17995 17999 18012 (6 flits)
Class 0:
Remaining flits: 17781 17826 17874 17995 17999 18012 (6 flits)
Measured flits: 17781 17826 17874 17995 17999 18012 (6 flits)
Class 0:
Remaining flits: 17781 17826 17874 17995 17999 18012 (6 flits)
Measured flits: 17781 17826 17874 17995 17999 18012 (6 flits)
Class 0:
Remaining flits: 17781 17826 17874 17995 17999 18012 (6 flits)
Measured flits: 17781 17826 17874 17995 17999 18012 (6 flits)
Class 0:
Remaining flits: 17781 17826 17874 17995 17999 18012 (6 flits)
Measured flits: 17781 17826 17874 17995 17999 18012 (6 flits)
Class 0:
Remaining flits: 17781 17826 17874 17995 17999 18012 (6 flits)
Measured flits: 17781 17826 17874 17995 17999 18012 (6 flits)
Class 0:
Remaining flits: 17781 17826 17874 17995 17999 18012 (6 flits)
Measured flits: 17781 17826 17874 17995 17999 18012 (6 flits)
Class 0:
Remaining flits: 17781 17826 17874 17995 17999 18012 (6 flits)
Measured flits: 17781 17826 17874 17995 17999 18012 (6 flits)
Class 0:
Remaining flits: 17781 17826 17874 17995 17999 18012 (6 flits)
Measured flits: 17781 17826 17874 17995 17999 18012 (6 flits)
Class 0:
Remaining flits: 17781 17826 17874 17995 17999 18012 (6 flits)
Measured flits: 17781 17826 17874 17995 17999 18012 (6 flits)
Class 0:
Remaining flits: 17781 17826 17874 17995 17999 18012 (6 flits)
Measured flits: 17781 17826 17874 17995 17999 18012 (6 flits)
Class 0:
Remaining flits: 17781 17826 17874 17995 17999 18012 (6 flits)
Measured flits: 17781 17826 17874 17995 17999 18012 (6 flits)
Class 0:
Remaining flits: 17781 17826 17874 17995 17999 18012 (6 flits)
Measured flits: 17781 17826 17874 17995 17999 18012 (6 flits)
Class 0:
Remaining flits: 17781 17826 17874 17995 17999 18012 (6 flits)
Measured flits: 17781 17826 17874 17995 17999 18012 (6 flits)
Class 0:
Remaining flits: 17781 17826 17874 17995 17999 18012 (6 flits)
Measured flits: 17781 17826 17874 17995 17999 18012 (6 flits)
Class 0:
Remaining flits: 17781 17826 17874 17995 17999 18012 (6 flits)
Measured flits: 17781 17826 17874 17995 17999 18012 (6 flits)
Class 0:
Remaining flits: 17781 17826 17874 17995 17999 18012 (6 flits)
Measured flits: 17781 17826 17874 17995 17999 18012 (6 flits)
Class 0:
Remaining flits: 17781 17826 17874 17995 17999 18012 (6 flits)
Measured flits: 17781 17826 17874 17995 17999 18012 (6 flits)
Class 0:
Remaining flits: 17781 17826 17874 17995 17999 18012 (6 flits)
Measured flits: 17781 17826 17874 17995 17999 18012 (6 flits)
Class 0:
Remaining flits: 17781 17826 17874 17995 17999 18012 (6 flits)
Measured flits: 17781 17826 17874 17995 17999 18012 (6 flits)
Class 0:
Remaining flits: 17781 17826 17874 17995 17999 18012 (6 flits)
Measured flits: 17781 17826 17874 17995 17999 18012 (6 flits)
Class 0:
Remaining flits: 17781 17826 17874 17995 17999 18012 (6 flits)
Measured flits: 17781 17826 17874 17995 17999 18012 (6 flits)
Class 0:
Remaining flits: 17781 17826 17874 17995 17999 18012 (6 flits)
Measured flits: 17781 17826 17874 17995 17999 18012 (6 flits)
Class 0:
Remaining flits: 17781 17826 17874 17995 17999 18012 (6 flits)
Measured flits: 17781 17826 17874 17995 17999 18012 (6 flits)
Class 0:
Remaining flits: 17781 17826 17874 17995 17999 18012 (6 flits)
Measured flits: 17781 17826 17874 17995 17999 18012 (6 flits)
Class 0:
Remaining flits: 17781 17826 17874 17995 17999 18012 (6 flits)
Measured flits: 17781 17826 17874 17995 17999 18012 (6 flits)
Class 0:
Remaining flits: 17781 17826 17874 17995 17999 18012 (6 flits)
Measured flits: 17781 17826 17874 17995 17999 18012 (6 flits)
Class 0:
Remaining flits: 17781 17826 17874 17995 17999 18012 (6 flits)
Measured flits: 17781 17826 17874 17995 17999 18012 (6 flits)
Class 0:
Remaining flits: 17781 17826 17874 17995 17999 18012 (6 flits)
Measured flits: 17781 17826 17874 17995 17999 18012 (6 flits)
Class 0:
Remaining flits: 17781 17826 17874 17995 17999 18012 (6 flits)
Measured flits: 17781 17826 17874 17995 17999 18012 (6 flits)
Class 0:
Remaining flits: 17781 17826 17874 17995 17999 18012 (6 flits)
Measured flits: 17781 17826 17874 17995 17999 18012 (6 flits)
Class 0:
Remaining flits: 17781 17826 17874 17995 17999 18012 (6 flits)
Measured flits: 17781 17826 17874 17995 17999 18012 (6 flits)
Class 0:
Remaining flits: 17781 17826 17874 17995 17999 18012 (6 flits)
Measured flits: 17781 17826 17874 17995 17999 18012 (6 flits)
Class 0:
Remaining flits: 17781 17826 17874 17995 17999 18012 (6 flits)
Measured flits: 17781 17826 17874 17995 17999 18012 (6 flits)
Class 0:
Remaining flits: 17781 17826 17874 17995 17999 18012 (6 flits)
Measured flits: 17781 17826 17874 17995 17999 18012 (6 flits)
Class 0:
Remaining flits: 17781 17826 17874 17995 17999 18012 (6 flits)
Measured flits: 17781 17826 17874 17995 17999 18012 (6 flits)
Class 0:
Remaining flits: 17781 17826 17874 17995 17999 18012 (6 flits)
Measured flits: 17781 17826 17874 17995 17999 18012 (6 flits)
Class 0:
Remaining flits: 17781 17826 17874 17995 17999 18012 (6 flits)
Measured flits: 17781 17826 17874 17995 17999 18012 (6 flits)
Class 0:
Remaining flits: 17781 17826 17874 17995 17999 18012 (6 flits)
Measured flits: 17781 17826 17874 17995 17999 18012 (6 flits)
Class 0:
Remaining flits: 17781 17826 17874 17995 17999 18012 (6 flits)
Measured flits: 17781 17826 17874 17995 17999 18012 (6 flits)
Class 0:
Remaining flits: 17781 17826 17874 17995 17999 18012 (6 flits)
Measured flits: 17781 17826 17874 17995 17999 18012 (6 flits)
Class 0:
Remaining flits: 17781 17826 17874 17995 17999 18012 (6 flits)
Measured flits: 17781 17826 17874 17995 17999 18012 (6 flits)
Class 0:
Remaining flits: 17781 17826 17874 17995 17999 18012 (6 flits)
Measured flits: 17781 17826 17874 17995 17999 18012 (6 flits)
Class 0:
Remaining flits: 17781 17826 17874 17995 17999 18012 (6 flits)
Measured flits: 17781 17826 17874 17995 17999 18012 (6 flits)
Class 0:
Remaining flits: 17781 17826 17874 17995 17999 18012 (6 flits)
Measured flits: 17781 17826 17874 17995 17999 18012 (6 flits)
Class 0:
Remaining flits: 17781 17826 17874 17995 17999 18012 (6 flits)
Measured flits: 17781 17826 17874 17995 17999 18012 (6 flits)
Class 0:
Remaining flits: 17781 17826 17874 17995 17999 18012 (6 flits)
Measured flits: 17781 17826 17874 17995 17999 18012 (6 flits)
Time taken is 7000 cycles
====== Traffic class 0 ======

Total number of flits generated = 18014, changed lanes = 17212
Overall minimum packet latency = 7 (1 samples)
Overall average packet latency = 25.5657 (1 samples)
Overall maximum packet latency = 133 (1 samples)
Overall minimum network latency = 8 (1 samples)
Overall average network latency = 26.5654 (1 samples)
Overall maximum network latency = 134 (1 samples)
Overall minimum flit latency = 8 (1 samples)
Overall average flit latency = 26.5909 (1 samples)
Overall maximum flit latency = 134 (1 samples)
Overall minimum fragmentation = 0 (1 samples)
Overall average fragmentation = 0 (1 samples)
Overall maximum fragmentation = 0 (1 samples)
Overall minimum injected packet rate = 0.173333 (1 samples)
Overall average injected packet rate = 0.189146 (1 samples)
Overall maximum injected packet rate = 0.203 (1 samples)
Overall minimum accepted packet rate = 0.162333 (1 samples)
Overall average accepted packet rate = 0.189229 (1 samples)
Overall maximum accepted packet rate = 0.198 (1 samples)
Overall minimum injected flit rate = 0.173333 (1 samples)
Overall average injected flit rate = 0.189146 (1 samples)
Overall maximum injected flit rate = 0.203 (1 samples)
Overall minimum accepted flit rate = 0.162333 (1 samples)
Overall average accepted flit rate = 0.189229 (1 samples)
Overall maximum accepted flit rate = 0.198 (1 samples)
Overall average injected packet size = 1 (1 samples)
Overall average accepted packet size = 1 (1 samples)
Overall average hops = 2.98909 (1 samples)
Overall throughput of the network (flits/cycle) = 6.00267
Overall throughput of the network (packets/cycle) = 6.00267
Total run time 26.3213
