make: Nothing to be done for 'all'.
Master: Running timer....
Master: Running SRC....
BEGIN Configuration File: ./examples/bitrev
// Topology

topology = torus;
k = 4;
n = 2;

// Routing
routing_function = dim_order;

// Flow control
num_vcs     = 4;
vc_buf_size = 4;
wait_for_tail_credit = 0;

// Router architecture
vc_allocator = islip;
sw_allocator = islip;
alloc_iters  = 1;

credit_delay   = 1;
routing_delay  = 1;
vc_alloc_delay = 1;
sw_alloc_delay = 1;

input_speedup     = 1;
output_speedup    = 1;
internal_speedup  = 1.0;

vc_busy_when_full = 0;

// Traffic
traffic = uniform;
packet_size = 1;

// Simulation
sim_type = throughput;

injection_rate = 0.35;

END Configuration File: ./examples/bitrev
===== Time: 1000 =====
Class 0:
Minimum packet latency = 7
Average packet latency = 32.5833
Maximum packet latency = 117
Minimum network latency = 8
Average network latency = 33.5722
Maximum network latency = 115
Slowest packet = 3331
Minimum flit latency = 8
Average flit latency = 33.5722
Maximum flit latency = 115
Slowest flit = 3331
Minimum fragmentation = 0
Average fragmentation = 0
Maximum fragmentation = 0
Minimum injected packet rate = 0.329 (at node 9)
Average injected packet rate = 0.348062
Maximum injected packet rate = 0.367 (at node 10)
Minimum accepted packet rate = 0.312 (at node 3)
Average accepted packet rate = 0.336
Maximum accepted packet rate = 0.39 (at node 8)
Minimum injected flit rate = 0.329 (at node 9)
Average injected flit rate = 0.348062
Maximum injected flit rate = 0.367 (at node 10)
Minimum accepted flit rate = 0.312 (at node 3)
Average accepted flit rate = 0.336
Maximum accepted flit rate = 0.39 (at node 8)
Total number of injected packets = 5569
Total number of injected flits = 5569
Average injected packet length = 1
Total number of accepted packets = 5376
Total number of accepted flits = 5376
Average accepted packet length = 1
Total in-flight flits = 193 (0 measured)
===== Time: 2000 =====
Class 0:
Minimum packet latency = 7
Average packet latency = 34.0414
Maximum packet latency = 118
Minimum network latency = 8
Average network latency = 34.9323
Maximum network latency = 119
Slowest packet = 6835
Minimum flit latency = 8
Average flit latency = 34.9323
Maximum flit latency = 119
Slowest flit = 6835
Minimum fragmentation = 0
Average fragmentation = 0
Maximum fragmentation = 0
Minimum injected packet rate = 0.326 (at node 4)
Average injected packet rate = 0.345594
Maximum injected packet rate = 0.357 (at node 2)
Minimum accepted packet rate = 0.3075 (at node 4)
Average accepted packet rate = 0.339656
Maximum accepted packet rate = 0.3725 (at node 8)
Minimum injected flit rate = 0.326 (at node 4)
Average injected flit rate = 0.345594
Maximum injected flit rate = 0.357 (at node 2)
Minimum accepted flit rate = 0.3075 (at node 4)
Average accepted flit rate = 0.339656
Maximum accepted flit rate = 0.3725 (at node 8)
Total number of injected packets = 11059
Total number of injected flits = 11059
Average injected packet length = 1
Total number of accepted packets = 10869
Total number of accepted flits = 10869
Average accepted packet length = 1
Total in-flight flits = 190 (0 measured)
===== Time: 3000 =====
Class 0:
Minimum packet latency = 7
Average packet latency = 36.0191
Maximum packet latency = 137
Minimum network latency = 8
Average network latency = 36.3005
Maximum network latency = 138
Slowest packet = 13575
Minimum flit latency = 8
Average flit latency = 36.3005
Maximum flit latency = 138
Slowest flit = 13575
Minimum fragmentation = 0
Average fragmentation = 0
Maximum fragmentation = 0
Minimum injected packet rate = 0.333 (at node 12)
Average injected packet rate = 0.351562
Maximum injected packet rate = 0.377 (at node 6)
Minimum accepted packet rate = 0.33 (at node 0)
Average accepted packet rate = 0.349375
Maximum accepted packet rate = 0.378 (at node 5)
Minimum injected flit rate = 0.333 (at node 12)
Average injected flit rate = 0.351562
Maximum injected flit rate = 0.377 (at node 6)
Minimum accepted flit rate = 0.33 (at node 0)
Average accepted flit rate = 0.349375
Maximum accepted flit rate = 0.378 (at node 5)
Total number of injected packets = 5625
Total number of injected flits = 5625
Average injected packet length = 1
Total number of accepted packets = 5590
Total number of accepted flits = 5590
Average accepted packet length = 1
Total in-flight flits = 226 (0 measured)
===== Time: 4000 =====
Class 0:
Minimum packet latency = 7
Average packet latency = 34.5802
Maximum packet latency = 111
Minimum network latency = 8
Average network latency = 35.1338
Maximum network latency = 105
Slowest packet = 16695
Minimum flit latency = 8
Average flit latency = 35.6232
Maximum flit latency = 105
Slowest flit = 17884
Minimum fragmentation = 0
Average fragmentation = 0
Maximum fragmentation = 0
Minimum injected packet rate = 0.31 (at node 14)
Average injected packet rate = 0.349562
Maximum injected packet rate = 0.381 (at node 13)
Minimum accepted packet rate = 0.335 (at node 0)
Average accepted packet rate = 0.351812
Maximum accepted packet rate = 0.375 (at node 7)
Minimum injected flit rate = 0.31 (at node 14)
Average injected flit rate = 0.349562
Maximum injected flit rate = 0.381 (at node 13)
Minimum accepted flit rate = 0.335 (at node 0)
Average accepted flit rate = 0.351812
Maximum accepted flit rate = 0.375 (at node 7)
Total number of injected packets = 5593
Total number of injected flits = 5593
Average injected packet length = 1
Total number of accepted packets = 5629
Total number of accepted flits = 5629
Average accepted packet length = 1
Total in-flight flits = 189 (189 measured)
===== Time: 5000 =====
Class 0:
Minimum packet latency = 7
Average packet latency = 34.729
Maximum packet latency = 219
Minimum network latency = 8
Average network latency = 34.7814
Maximum network latency = 220
Slowest packet = 24346
Minimum flit latency = 8
Average flit latency = 35.0355
Maximum flit latency = 220
Slowest flit = 24346
Minimum fragmentation = 0
Average fragmentation = 0
Maximum fragmentation = 0
Minimum injected packet rate = 0.3095 (at node 14)
Average injected packet rate = 0.34725
Maximum injected packet rate = 0.3805 (at node 13)
Minimum accepted packet rate = 0.3325 (at node 14)
Average accepted packet rate = 0.348562
Maximum accepted packet rate = 0.3755 (at node 7)
Minimum injected flit rate = 0.3095 (at node 14)
Average injected flit rate = 0.34725
Maximum injected flit rate = 0.3805 (at node 13)
Minimum accepted flit rate = 0.3325 (at node 14)
Average accepted flit rate = 0.348562
Maximum accepted flit rate = 0.3755 (at node 7)
Total number of injected packets = 11112
Total number of injected flits = 11112
Average injected packet length = 1
Total number of accepted packets = 11154
Total number of accepted flits = 11154
Average accepted packet length = 1
Total in-flight flits = 184 (184 measured)
===== Time: 6000 =====
Class 0:
Minimum packet latency = 7
Average packet latency = 36.3886
Maximum packet latency = 219
Minimum network latency = 8
Average network latency = 35.975
Maximum network latency = 220
Slowest packet = 24346
Minimum flit latency = 8
Average flit latency = 36.1279
Maximum flit latency = 220
Slowest flit = 24346
Minimum fragmentation = 0
Average fragmentation = 0
Maximum fragmentation = 0
Minimum injected packet rate = 0.323667 (at node 14)
Average injected packet rate = 0.348792
Maximum injected packet rate = 0.376667 (at node 13)
Minimum accepted packet rate = 0.332667 (at node 4)
Average accepted packet rate = 0.349417
Maximum accepted packet rate = 0.380333 (at node 7)
Minimum injected flit rate = 0.323667 (at node 14)
Average injected flit rate = 0.348792
Maximum injected flit rate = 0.376667 (at node 13)
Minimum accepted flit rate = 0.332667 (at node 4)
Average accepted flit rate = 0.349417
Maximum accepted flit rate = 0.380333 (at node 7)
Total number of injected packets = 16742
Total number of injected flits = 16742
Average injected packet length = 1
Total number of accepted packets = 16772
Total number of accepted flits = 16772
Average accepted packet length = 1
Total in-flight flits = 195 (195 measured)
Draining remaining packets ...
Class 0:
Remaining flits: 33055 33089 33101 33148 33173 33178 33187 33189 33192 33206 [...] (142 flits)
Measured flits: 33055 33089 33101 33148 33173 33178 33187 33189 33192 33206 [...] (142 flits)
Class 0:
Remaining flits: 33173 33189 33216 33236 33248 33257 33264 33265 33280 33293 [...] (87 flits)
Measured flits: 33173 33189 33216 33236 33248 33257 33264 33265 33280 33293 [...] (87 flits)
Class 0:
Remaining flits: 33173 33264 33280 33305 33332 33333 33334 33338 33340 33343 [...] (40 flits)
Measured flits: 33173 33264 33280 33305 33332 33333 33334 33338 33340 33343 [...] (40 flits)
Class 0:
Remaining flits: 33332 33340 33373 33379 33392 33397 33398 33406 33410 33413 [...] (17 flits)
Measured flits: 33332 33340 33373 33379 33392 33397 33398 33406 33410 33413 [...] (17 flits)
Class 0:
Remaining flits: 33379 33397 33406 33410 33413 33414 33418 33421 33424 (9 flits)
Measured flits: 33379 33397 33406 33410 33413 33414 33418 33421 33424 (9 flits)
Class 0:
Remaining flits: 33379 33397 33413 33414 33418 33421 33424 (7 flits)
Measured flits: 33379 33397 33413 33414 33418 33421 33424 (7 flits)
Class 0:
Remaining flits: 33379 33397 33413 33414 33418 33421 33424 (7 flits)
Measured flits: 33379 33397 33413 33414 33418 33421 33424 (7 flits)
Class 0:
Remaining flits: 33379 33397 33413 33414 33418 33421 33424 (7 flits)
Measured flits: 33379 33397 33413 33414 33418 33421 33424 (7 flits)
Class 0:
Remaining flits: 33379 33397 33413 33414 33418 33421 33424 (7 flits)
Measured flits: 33379 33397 33413 33414 33418 33421 33424 (7 flits)
Class 0:
Remaining flits: 33379 33397 33413 33414 33418 33421 33424 (7 flits)
Measured flits: 33379 33397 33413 33414 33418 33421 33424 (7 flits)
Class 0:
Remaining flits: 33379 33397 33413 33414 33418 33421 33424 (7 flits)
Measured flits: 33379 33397 33413 33414 33418 33421 33424 (7 flits)
Class 0:
Remaining flits: 33379 33397 33413 33414 33418 33421 33424 (7 flits)
Measured flits: 33379 33397 33413 33414 33418 33421 33424 (7 flits)
Class 0:
Remaining flits: 33379 33397 33413 33414 33418 33421 33424 (7 flits)
Measured flits: 33379 33397 33413 33414 33418 33421 33424 (7 flits)
Class 0:
Remaining flits: 33379 33397 33413 33414 33418 33421 33424 (7 flits)
Measured flits: 33379 33397 33413 33414 33418 33421 33424 (7 flits)
Class 0:
Remaining flits: 33379 33397 33413 33414 33418 33421 33424 (7 flits)
Measured flits: 33379 33397 33413 33414 33418 33421 33424 (7 flits)
Class 0:
Remaining flits: 33379 33397 33413 33414 33418 33421 33424 (7 flits)
Measured flits: 33379 33397 33413 33414 33418 33421 33424 (7 flits)
Class 0:
Remaining flits: 33379 33397 33413 33414 33418 33421 33424 (7 flits)
Measured flits: 33379 33397 33413 33414 33418 33421 33424 (7 flits)
Class 0:
Remaining flits: 33379 33397 33413 33414 33418 33421 33424 (7 flits)
Measured flits: 33379 33397 33413 33414 33418 33421 33424 (7 flits)
Class 0:
Remaining flits: 33379 33397 33413 33414 33418 33421 33424 (7 flits)
Measured flits: 33379 33397 33413 33414 33418 33421 33424 (7 flits)
Class 0:
Remaining flits: 33379 33397 33413 33414 33418 33421 33424 (7 flits)
Measured flits: 33379 33397 33413 33414 33418 33421 33424 (7 flits)
Class 0:
Remaining flits: 33379 33397 33413 33414 33418 33421 33424 (7 flits)
Measured flits: 33379 33397 33413 33414 33418 33421 33424 (7 flits)
Class 0:
Remaining flits: 33379 33397 33413 33414 33418 33421 33424 (7 flits)
Measured flits: 33379 33397 33413 33414 33418 33421 33424 (7 flits)
Class 0:
Remaining flits: 33379 33397 33413 33414 33418 33421 33424 (7 flits)
Measured flits: 33379 33397 33413 33414 33418 33421 33424 (7 flits)
Class 0:
Remaining flits: 33379 33397 33413 33414 33418 33421 33424 (7 flits)
Measured flits: 33379 33397 33413 33414 33418 33421 33424 (7 flits)
Class 0:
Remaining flits: 33379 33397 33413 33414 33418 33421 33424 (7 flits)
Measured flits: 33379 33397 33413 33414 33418 33421 33424 (7 flits)
Class 0:
Remaining flits: 33379 33397 33413 33414 33418 33421 33424 (7 flits)
Measured flits: 33379 33397 33413 33414 33418 33421 33424 (7 flits)
Class 0:
Remaining flits: 33379 33397 33413 33414 33418 33421 33424 (7 flits)
Measured flits: 33379 33397 33413 33414 33418 33421 33424 (7 flits)
Class 0:
Remaining flits: 33379 33397 33413 33414 33418 33421 33424 (7 flits)
Measured flits: 33379 33397 33413 33414 33418 33421 33424 (7 flits)
Class 0:
Remaining flits: 33379 33397 33413 33414 33418 33421 33424 (7 flits)
Measured flits: 33379 33397 33413 33414 33418 33421 33424 (7 flits)
Class 0:
Remaining flits: 33379 33397 33413 33414 33418 33421 33424 (7 flits)
Measured flits: 33379 33397 33413 33414 33418 33421 33424 (7 flits)
Class 0:
Remaining flits: 33379 33397 33413 33414 33418 33421 33424 (7 flits)
Measured flits: 33379 33397 33413 33414 33418 33421 33424 (7 flits)
Class 0:
Remaining flits: 33379 33397 33413 33414 33418 33421 33424 (7 flits)
Measured flits: 33379 33397 33413 33414 33418 33421 33424 (7 flits)
Class 0:
Remaining flits: 33379 33397 33413 33414 33418 33421 33424 (7 flits)
Measured flits: 33379 33397 33413 33414 33418 33421 33424 (7 flits)
Class 0:
Remaining flits: 33379 33397 33413 33414 33418 33421 33424 (7 flits)
Measured flits: 33379 33397 33413 33414 33418 33421 33424 (7 flits)
Class 0:
Remaining flits: 33379 33397 33413 33414 33418 33421 33424 (7 flits)
Measured flits: 33379 33397 33413 33414 33418 33421 33424 (7 flits)
Class 0:
Remaining flits: 33379 33397 33413 33414 33418 33421 33424 (7 flits)
Measured flits: 33379 33397 33413 33414 33418 33421 33424 (7 flits)
Class 0:
Remaining flits: 33379 33397 33413 33414 33418 33421 33424 (7 flits)
Measured flits: 33379 33397 33413 33414 33418 33421 33424 (7 flits)
Class 0:
Remaining flits: 33379 33397 33413 33414 33418 33421 33424 (7 flits)
Measured flits: 33379 33397 33413 33414 33418 33421 33424 (7 flits)
Class 0:
Remaining flits: 33379 33397 33413 33414 33418 33421 33424 (7 flits)
Measured flits: 33379 33397 33413 33414 33418 33421 33424 (7 flits)
Class 0:
Remaining flits: 33379 33397 33413 33414 33418 33421 33424 (7 flits)
Measured flits: 33379 33397 33413 33414 33418 33421 33424 (7 flits)
Class 0:
Remaining flits: 33379 33397 33413 33414 33418 33421 33424 (7 flits)
Measured flits: 33379 33397 33413 33414 33418 33421 33424 (7 flits)
Class 0:
Remaining flits: 33379 33397 33413 33414 33418 33421 33424 (7 flits)
Measured flits: 33379 33397 33413 33414 33418 33421 33424 (7 flits)
Class 0:
Remaining flits: 33379 33397 33413 33414 33418 33421 33424 (7 flits)
Measured flits: 33379 33397 33413 33414 33418 33421 33424 (7 flits)
Class 0:
Remaining flits: 33379 33397 33413 33414 33418 33421 33424 (7 flits)
Measured flits: 33379 33397 33413 33414 33418 33421 33424 (7 flits)
Class 0:
Remaining flits: 33379 33397 33413 33414 33418 33421 33424 (7 flits)
Measured flits: 33379 33397 33413 33414 33418 33421 33424 (7 flits)
Class 0:
Remaining flits: 33379 33397 33413 33414 33418 33421 33424 (7 flits)
Measured flits: 33379 33397 33413 33414 33418 33421 33424 (7 flits)
Class 0:
Remaining flits: 33379 33397 33413 33414 33418 33421 33424 (7 flits)
Measured flits: 33379 33397 33413 33414 33418 33421 33424 (7 flits)
Class 0:
Remaining flits: 33379 33397 33413 33414 33418 33421 33424 (7 flits)
Measured flits: 33379 33397 33413 33414 33418 33421 33424 (7 flits)
Class 0:
Remaining flits: 33379 33397 33413 33414 33418 33421 33424 (7 flits)
Measured flits: 33379 33397 33413 33414 33418 33421 33424 (7 flits)
Class 0:
Remaining flits: 33379 33397 33413 33414 33418 33421 33424 (7 flits)
Measured flits: 33379 33397 33413 33414 33418 33421 33424 (7 flits)
Class 0:
Remaining flits: 33379 33397 33413 33414 33418 33421 33424 (7 flits)
Measured flits: 33379 33397 33413 33414 33418 33421 33424 (7 flits)
Class 0:
Remaining flits: 33379 33397 33413 33414 33418 33421 33424 (7 flits)
Measured flits: 33379 33397 33413 33414 33418 33421 33424 (7 flits)
Class 0:
Remaining flits: 33379 33397 33413 33414 33418 33421 33424 (7 flits)
Measured flits: 33379 33397 33413 33414 33418 33421 33424 (7 flits)
Class 0:
Remaining flits: 33379 33397 33413 33414 33418 33421 33424 (7 flits)
Measured flits: 33379 33397 33413 33414 33418 33421 33424 (7 flits)
Class 0:
Remaining flits: 33379 33397 33413 33414 33418 33421 33424 (7 flits)
Measured flits: 33379 33397 33413 33414 33418 33421 33424 (7 flits)
Class 0:
Remaining flits: 33379 33397 33413 33414 33418 33421 33424 (7 flits)
Measured flits: 33379 33397 33413 33414 33418 33421 33424 (7 flits)
Class 0:
Remaining flits: 33379 33397 33413 33414 33418 33421 33424 (7 flits)
Measured flits: 33379 33397 33413 33414 33418 33421 33424 (7 flits)
Class 0:
Remaining flits: 33379 33397 33413 33414 33418 33421 33424 (7 flits)
Measured flits: 33379 33397 33413 33414 33418 33421 33424 (7 flits)
Class 0:
Remaining flits: 33379 33397 33413 33414 33418 33421 33424 (7 flits)
Measured flits: 33379 33397 33413 33414 33418 33421 33424 (7 flits)
Class 0:
Remaining flits: 33379 33397 33413 33414 33418 33421 33424 (7 flits)
Measured flits: 33379 33397 33413 33414 33418 33421 33424 (7 flits)
Class 0:
Remaining flits: 33379 33397 33413 33414 33418 33421 33424 (7 flits)
Measured flits: 33379 33397 33413 33414 33418 33421 33424 (7 flits)
Class 0:
Remaining flits: 33379 33397 33413 33414 33418 33421 33424 (7 flits)
Measured flits: 33379 33397 33413 33414 33418 33421 33424 (7 flits)
Class 0:
Remaining flits: 33379 33397 33413 33414 33418 33421 33424 (7 flits)
Measured flits: 33379 33397 33413 33414 33418 33421 33424 (7 flits)
Class 0:
Remaining flits: 33379 33397 33413 33414 33418 33421 33424 (7 flits)
Measured flits: 33379 33397 33413 33414 33418 33421 33424 (7 flits)
Class 0:
Remaining flits: 33379 33397 33413 33414 33418 33421 33424 (7 flits)
Measured flits: 33379 33397 33413 33414 33418 33421 33424 (7 flits)
Class 0:
Remaining flits: 33379 33397 33413 33414 33418 33421 33424 (7 flits)
Measured flits: 33379 33397 33413 33414 33418 33421 33424 (7 flits)
Class 0:
Remaining flits: 33379 33397 33413 33414 33418 33421 33424 (7 flits)
Measured flits: 33379 33397 33413 33414 33418 33421 33424 (7 flits)
Class 0:
Remaining flits: 33379 33397 33413 33414 33418 33421 33424 (7 flits)
Measured flits: 33379 33397 33413 33414 33418 33421 33424 (7 flits)
Class 0:
Remaining flits: 33379 33397 33413 33414 33418 33421 33424 (7 flits)
Measured flits: 33379 33397 33413 33414 33418 33421 33424 (7 flits)
Class 0:
Remaining flits: 33379 33397 33413 33414 33418 33421 33424 (7 flits)
Measured flits: 33379 33397 33413 33414 33418 33421 33424 (7 flits)
Class 0:
Remaining flits: 33379 33397 33413 33414 33418 33421 33424 (7 flits)
Measured flits: 33379 33397 33413 33414 33418 33421 33424 (7 flits)
Class 0:
Remaining flits: 33379 33397 33413 33414 33418 33421 33424 (7 flits)
Measured flits: 33379 33397 33413 33414 33418 33421 33424 (7 flits)
Class 0:
Remaining flits: 33379 33397 33413 33414 33418 33421 33424 (7 flits)
Measured flits: 33379 33397 33413 33414 33418 33421 33424 (7 flits)
Class 0:
Remaining flits: 33379 33397 33413 33414 33418 33421 33424 (7 flits)
Measured flits: 33379 33397 33413 33414 33418 33421 33424 (7 flits)
Class 0:
Remaining flits: 33379 33397 33413 33414 33418 33421 33424 (7 flits)
Measured flits: 33379 33397 33413 33414 33418 33421 33424 (7 flits)
Class 0:
Remaining flits: 33379 33397 33413 33414 33418 33421 33424 (7 flits)
Measured flits: 33379 33397 33413 33414 33418 33421 33424 (7 flits)
Class 0:
Remaining flits: 33379 33397 33413 33414 33418 33421 33424 (7 flits)
Measured flits: 33379 33397 33413 33414 33418 33421 33424 (7 flits)
Class 0:
Remaining flits: 33379 33397 33413 33414 33418 33421 33424 (7 flits)
Measured flits: 33379 33397 33413 33414 33418 33421 33424 (7 flits)
Class 0:
Remaining flits: 33379 33397 33413 33414 33418 33421 33424 (7 flits)
Measured flits: 33379 33397 33413 33414 33418 33421 33424 (7 flits)
Class 0:
Remaining flits: 33379 33397 33413 33414 33418 33421 33424 (7 flits)
Measured flits: 33379 33397 33413 33414 33418 33421 33424 (7 flits)
Class 0:
Remaining flits: 33379 33397 33413 33414 33418 33421 33424 (7 flits)
Measured flits: 33379 33397 33413 33414 33418 33421 33424 (7 flits)
Class 0:
Remaining flits: 33379 33397 33413 33414 33418 33421 33424 (7 flits)
Measured flits: 33379 33397 33413 33414 33418 33421 33424 (7 flits)
Class 0:
Remaining flits: 33379 33397 33413 33414 33418 33421 33424 (7 flits)
Measured flits: 33379 33397 33413 33414 33418 33421 33424 (7 flits)
Class 0:
Remaining flits: 33379 33397 33413 33414 33418 33421 33424 (7 flits)
Measured flits: 33379 33397 33413 33414 33418 33421 33424 (7 flits)
Class 0:
Remaining flits: 33379 33397 33413 33414 33418 33421 33424 (7 flits)
Measured flits: 33379 33397 33413 33414 33418 33421 33424 (7 flits)
Class 0:
Remaining flits: 33379 33397 33413 33414 33418 33421 33424 (7 flits)
Measured flits: 33379 33397 33413 33414 33418 33421 33424 (7 flits)
Class 0:
Remaining flits: 33379 33397 33413 33414 33418 33421 33424 (7 flits)
Measured flits: 33379 33397 33413 33414 33418 33421 33424 (7 flits)
Class 0:
Remaining flits: 33379 33397 33413 33414 33418 33421 33424 (7 flits)
Measured flits: 33379 33397 33413 33414 33418 33421 33424 (7 flits)
Class 0:
Remaining flits: 33379 33397 33413 33414 33418 33421 33424 (7 flits)
Measured flits: 33379 33397 33413 33414 33418 33421 33424 (7 flits)
Class 0:
Remaining flits: 33379 33397 33413 33414 33418 33421 33424 (7 flits)
Measured flits: 33379 33397 33413 33414 33418 33421 33424 (7 flits)
Class 0:
Remaining flits: 33379 33397 33413 33414 33418 33421 33424 (7 flits)
Measured flits: 33379 33397 33413 33414 33418 33421 33424 (7 flits)
Class 0:
Remaining flits: 33379 33397 33413 33414 33418 33421 33424 (7 flits)
Measured flits: 33379 33397 33413 33414 33418 33421 33424 (7 flits)
Class 0:
Remaining flits: 33379 33397 33413 33414 33418 33421 33424 (7 flits)
Measured flits: 33379 33397 33413 33414 33418 33421 33424 (7 flits)
Class 0:
Remaining flits: 33379 33397 33413 33414 33418 33421 33424 (7 flits)
Measured flits: 33379 33397 33413 33414 33418 33421 33424 (7 flits)
Class 0:
Remaining flits: 33379 33397 33413 33414 33418 33421 33424 (7 flits)
Measured flits: 33379 33397 33413 33414 33418 33421 33424 (7 flits)
Class 0:
Remaining flits: 33379 33397 33413 33414 33418 33421 33424 (7 flits)
Measured flits: 33379 33397 33413 33414 33418 33421 33424 (7 flits)
Class 0:
Remaining flits: 33379 33397 33413 33414 33418 33421 33424 (7 flits)
Measured flits: 33379 33397 33413 33414 33418 33421 33424 (7 flits)
Class 0:
Remaining flits: 33379 33397 33413 33414 33418 33421 33424 (7 flits)
Measured flits: 33379 33397 33413 33414 33418 33421 33424 (7 flits)
Class 0:
Remaining flits: 33379 33397 33413 33414 33418 33421 33424 (7 flits)
Measured flits: 33379 33397 33413 33414 33418 33421 33424 (7 flits)
Class 0:
Remaining flits: 33379 33397 33413 33414 33418 33421 33424 (7 flits)
Measured flits: 33379 33397 33413 33414 33418 33421 33424 (7 flits)
Class 0:
Remaining flits: 33379 33397 33413 33414 33418 33421 33424 (7 flits)
Measured flits: 33379 33397 33413 33414 33418 33421 33424 (7 flits)
Time taken is 7000 cycles
====== Traffic class 0 ======

Total number of flits generated = 33426, changed lanes = 32360
Overall minimum packet latency = 7 (1 samples)
Overall average packet latency = 36.4347 (1 samples)
Overall maximum packet latency = 219 (1 samples)
Overall minimum network latency = 8 (1 samples)
Overall average network latency = 36.0354 (1 samples)
Overall maximum network latency = 220 (1 samples)
Overall minimum flit latency = 8 (1 samples)
Overall average flit latency = 36.1858 (1 samples)
Overall maximum flit latency = 220 (1 samples)
Overall minimum fragmentation = 0 (1 samples)
Overall average fragmentation = 0 (1 samples)
Overall maximum fragmentation = 0 (1 samples)
Overall minimum injected packet rate = 0.323667 (1 samples)
Overall average injected packet rate = 0.348792 (1 samples)
Overall maximum injected packet rate = 0.376667 (1 samples)
Overall minimum accepted packet rate = 0.332667 (1 samples)
Overall average accepted packet rate = 0.349417 (1 samples)
Overall maximum accepted packet rate = 0.380333 (1 samples)
Overall minimum injected flit rate = 0.323667 (1 samples)
Overall average injected flit rate = 0.348792 (1 samples)
Overall maximum injected flit rate = 0.376667 (1 samples)
Overall minimum accepted flit rate = 0.332667 (1 samples)
Overall average accepted flit rate = 0.349417 (1 samples)
Overall maximum accepted flit rate = 0.380333 (1 samples)
Overall average injected packet size = 1 (1 samples)
Overall average accepted packet size = 1 (1 samples)
Overall average hops = 3.00221 (1 samples)
Overall throughput of the network (flits/cycle) = 11.1397
Overall throughput of the network (packets/cycle) = 11.1397
Total run time 786.652
