make: Nothing to be done for 'all'.
Master: Running timer....
Master: Running SRC....
BEGIN Configuration File: ./examples/bitrev
// Topology

topology = torus;
k = 4;
n = 2;

// Routing
routing_function = dim_order;

// Flow control
num_vcs     = 4;
vc_buf_size = 4;
wait_for_tail_credit = 0;

// Router architecture
vc_allocator = islip;
sw_allocator = islip;
alloc_iters  = 1;

credit_delay   = 1;
routing_delay  = 1;
vc_alloc_delay = 1;
sw_alloc_delay = 1;

input_speedup     = 1;
output_speedup    = 1;
internal_speedup  = 1.0;

vc_busy_when_full = 0;

// Traffic
traffic = uniform;
packet_size = 1;

// Simulation
sim_type = throughput;

injection_rate = 0.29;

END Configuration File: ./examples/bitrev
===== Time: 1000 =====
Class 0:
Minimum packet latency = 7
Average packet latency = 29.4592
Maximum packet latency = 188
Minimum network latency = 8
Average network latency = 29.3613
Maximum network latency = 189
Slowest packet = 2829
Minimum flit latency = 8
Average flit latency = 29.3613
Maximum flit latency = 189
Slowest flit = 2829
Minimum fragmentation = 0
Average fragmentation = 0
Maximum fragmentation = 0
Minimum injected packet rate = 0.263 (at node 7)
Average injected packet rate = 0.283375
Maximum injected packet rate = 0.3 (at node 11)
Minimum accepted packet rate = 0.247 (at node 4)
Average accepted packet rate = 0.27575
Maximum accepted packet rate = 0.304 (at node 7)
Minimum injected flit rate = 0.263 (at node 7)
Average injected flit rate = 0.283375
Maximum injected flit rate = 0.3 (at node 11)
Minimum accepted flit rate = 0.247 (at node 4)
Average accepted flit rate = 0.27575
Maximum accepted flit rate = 0.304 (at node 7)
Total number of injected packets = 4534
Total number of injected flits = 4534
Average injected packet length = 1
Total number of accepted packets = 4412
Total number of accepted flits = 4412
Average accepted packet length = 1
Total in-flight flits = 123 (0 measured)
===== Time: 2000 =====
Class 0:
Minimum packet latency = 7
Average packet latency = 30.0349
Maximum packet latency = 188
Minimum network latency = 8
Average network latency = 29.4219
Maximum network latency = 189
Slowest packet = 2829
Minimum flit latency = 8
Average flit latency = 29.4219
Maximum flit latency = 189
Slowest flit = 2829
Minimum fragmentation = 0
Average fragmentation = 0
Maximum fragmentation = 0
Minimum injected packet rate = 0.26 (at node 7)
Average injected packet rate = 0.285594
Maximum injected packet rate = 0.3055 (at node 2)
Minimum accepted packet rate = 0.2575 (at node 4)
Average accepted packet rate = 0.281406
Maximum accepted packet rate = 0.3055 (at node 8)
Minimum injected flit rate = 0.26 (at node 7)
Average injected flit rate = 0.285594
Maximum injected flit rate = 0.3055 (at node 2)
Minimum accepted flit rate = 0.2575 (at node 4)
Average accepted flit rate = 0.281406
Maximum accepted flit rate = 0.3055 (at node 8)
Total number of injected packets = 9139
Total number of injected flits = 9139
Average injected packet length = 1
Total number of accepted packets = 9005
Total number of accepted flits = 9005
Average accepted packet length = 1
Total in-flight flits = 134 (0 measured)
===== Time: 3000 =====
Class 0:
Minimum packet latency = 7
Average packet latency = 27.4699
Maximum packet latency = 83
Minimum network latency = 8
Average network latency = 28.4699
Maximum network latency = 84
Slowest packet = 12067
Minimum flit latency = 8
Average flit latency = 28.4699
Maximum flit latency = 84
Slowest flit = 12067
Minimum fragmentation = 0
Average fragmentation = 0
Maximum fragmentation = 0
Minimum injected packet rate = 0.276 (at node 4)
Average injected packet rate = 0.293187
Maximum injected packet rate = 0.32 (at node 6)
Minimum accepted packet rate = 0.262 (at node 13)
Average accepted packet rate = 0.292875
Maximum accepted packet rate = 0.327 (at node 12)
Minimum injected flit rate = 0.276 (at node 4)
Average injected flit rate = 0.293187
Maximum injected flit rate = 0.32 (at node 6)
Minimum accepted flit rate = 0.262 (at node 13)
Average accepted flit rate = 0.292875
Maximum accepted flit rate = 0.327 (at node 12)
Total number of injected packets = 4691
Total number of injected flits = 4691
Average injected packet length = 1
Total number of accepted packets = 4686
Total number of accepted flits = 4686
Average accepted packet length = 1
Total in-flight flits = 139 (0 measured)
===== Time: 4000 =====
Class 0:
Minimum packet latency = 7
Average packet latency = 27.6394
Maximum packet latency = 125
Minimum network latency = 8
Average network latency = 28.6352
Maximum network latency = 126
Slowest packet = 16792
Minimum flit latency = 8
Average flit latency = 28.7701
Maximum flit latency = 126
Slowest flit = 16792
Minimum fragmentation = 0
Average fragmentation = 0
Maximum fragmentation = 0
Minimum injected packet rate = 0.249 (at node 14)
Average injected packet rate = 0.28975
Maximum injected packet rate = 0.322 (at node 10)
Minimum accepted packet rate = 0.257 (at node 4)
Average accepted packet rate = 0.289812
Maximum accepted packet rate = 0.308 (at node 9)
Minimum injected flit rate = 0.249 (at node 14)
Average injected flit rate = 0.28975
Maximum injected flit rate = 0.322 (at node 10)
Minimum accepted flit rate = 0.257 (at node 4)
Average accepted flit rate = 0.289812
Maximum accepted flit rate = 0.308 (at node 9)
Total number of injected packets = 4636
Total number of injected flits = 4636
Average injected packet length = 1
Total number of accepted packets = 4637
Total number of accepted flits = 4637
Average accepted packet length = 1
Total in-flight flits = 138 (138 measured)
===== Time: 5000 =====
Class 0:
Minimum packet latency = 7
Average packet latency = 27.628
Maximum packet latency = 125
Minimum network latency = 8
Average network latency = 28.6259
Maximum network latency = 126
Slowest packet = 16792
Minimum flit latency = 8
Average flit latency = 28.6937
Maximum flit latency = 126
Slowest flit = 16792
Minimum fragmentation = 0
Average fragmentation = 0
Maximum fragmentation = 0
Minimum injected packet rate = 0.2625 (at node 14)
Average injected packet rate = 0.288719
Maximum injected packet rate = 0.304 (at node 13)
Minimum accepted packet rate = 0.2645 (at node 4)
Average accepted packet rate = 0.288844
Maximum accepted packet rate = 0.303 (at node 15)
Minimum injected flit rate = 0.2625 (at node 14)
Average injected flit rate = 0.288719
Maximum injected flit rate = 0.304 (at node 13)
Minimum accepted flit rate = 0.2645 (at node 4)
Average accepted flit rate = 0.288844
Maximum accepted flit rate = 0.303 (at node 15)
Total number of injected packets = 9239
Total number of injected flits = 9239
Average injected packet length = 1
Total number of accepted packets = 9243
Total number of accepted flits = 9243
Average accepted packet length = 1
Total in-flight flits = 135 (135 measured)
===== Time: 6000 =====
Class 0:
Minimum packet latency = 7
Average packet latency = 27.8258
Maximum packet latency = 125
Minimum network latency = 8
Average network latency = 28.8244
Maximum network latency = 126
Slowest packet = 16792
Minimum flit latency = 8
Average flit latency = 28.8675
Maximum flit latency = 126
Slowest flit = 16792
Minimum fragmentation = 0
Average fragmentation = 0
Maximum fragmentation = 0
Minimum injected packet rate = 0.273333 (at node 14)
Average injected packet rate = 0.289396
Maximum injected packet rate = 0.305 (at node 13)
Minimum accepted packet rate = 0.274 (at node 14)
Average accepted packet rate = 0.289833
Maximum accepted packet rate = 0.313333 (at node 7)
Minimum injected flit rate = 0.273333 (at node 14)
Average injected flit rate = 0.289396
Maximum injected flit rate = 0.305 (at node 13)
Minimum accepted flit rate = 0.274 (at node 14)
Average accepted flit rate = 0.289833
Maximum accepted flit rate = 0.313333 (at node 7)
Total number of injected packets = 13891
Total number of injected flits = 13891
Average injected packet length = 1
Total number of accepted packets = 13912
Total number of accepted flits = 13912
Average accepted packet length = 1
Total in-flight flits = 118 (118 measured)
Draining remaining packets ...
Class 0:
Remaining flits: 27421 27476 27526 27539 27560 27564 27569 27571 27582 27588 [...] (82 flits)
Measured flits: 27421 27476 27526 27539 27560 27564 27569 27571 27582 27588 [...] (82 flits)
Class 0:
Remaining flits: 27421 27526 27560 27571 27603 27606 27608 27612 27635 27637 [...] (46 flits)
Measured flits: 27421 27526 27560 27571 27603 27606 27608 27612 27635 27637 [...] (46 flits)
Class 0:
Remaining flits: 27421 27571 27606 27612 27635 27646 27656 27671 27674 27678 [...] (26 flits)
Measured flits: 27421 27571 27606 27612 27635 27646 27656 27671 27674 27678 [...] (26 flits)
Class 0:
Remaining flits: 27612 27646 27671 27674 27679 27682 27685 27687 27688 27699 [...] (12 flits)
Measured flits: 27612 27646 27671 27674 27679 27682 27685 27687 27688 27699 [...] (12 flits)
Class 0:
Remaining flits: 27671 27679 27685 27687 27699 27712 (6 flits)
Measured flits: 27671 27679 27685 27687 27699 27712 (6 flits)
Class 0:
Remaining flits: 27679 27685 27687 (3 flits)
Measured flits: 27679 27685 27687 (3 flits)
Class 0:
Remaining flits: 27679 27685 27687 (3 flits)
Measured flits: 27679 27685 27687 (3 flits)
Class 0:
Remaining flits: 27679 27685 27687 (3 flits)
Measured flits: 27679 27685 27687 (3 flits)
Class 0:
Remaining flits: 27679 27685 27687 (3 flits)
Measured flits: 27679 27685 27687 (3 flits)
Class 0:
Remaining flits: 27679 27685 27687 (3 flits)
Measured flits: 27679 27685 27687 (3 flits)
Class 0:
Remaining flits: 27679 27685 27687 (3 flits)
Measured flits: 27679 27685 27687 (3 flits)
Class 0:
Remaining flits: 27679 27685 27687 (3 flits)
Measured flits: 27679 27685 27687 (3 flits)
Class 0:
Remaining flits: 27679 27685 27687 (3 flits)
Measured flits: 27679 27685 27687 (3 flits)
Class 0:
Remaining flits: 27679 27685 27687 (3 flits)
Measured flits: 27679 27685 27687 (3 flits)
Class 0:
Remaining flits: 27679 27685 27687 (3 flits)
Measured flits: 27679 27685 27687 (3 flits)
Class 0:
Remaining flits: 27679 27685 27687 (3 flits)
Measured flits: 27679 27685 27687 (3 flits)
Class 0:
Remaining flits: 27679 27685 27687 (3 flits)
Measured flits: 27679 27685 27687 (3 flits)
Class 0:
Remaining flits: 27679 27685 27687 (3 flits)
Measured flits: 27679 27685 27687 (3 flits)
Class 0:
Remaining flits: 27679 27685 27687 (3 flits)
Measured flits: 27679 27685 27687 (3 flits)
Class 0:
Remaining flits: 27679 27685 27687 (3 flits)
Measured flits: 27679 27685 27687 (3 flits)
Class 0:
Remaining flits: 27679 27685 27687 (3 flits)
Measured flits: 27679 27685 27687 (3 flits)
Class 0:
Remaining flits: 27679 27685 27687 (3 flits)
Measured flits: 27679 27685 27687 (3 flits)
Class 0:
Remaining flits: 27679 27685 27687 (3 flits)
Measured flits: 27679 27685 27687 (3 flits)
Class 0:
Remaining flits: 27679 27685 27687 (3 flits)
Measured flits: 27679 27685 27687 (3 flits)
Class 0:
Remaining flits: 27679 27685 27687 (3 flits)
Measured flits: 27679 27685 27687 (3 flits)
Class 0:
Remaining flits: 27679 27685 27687 (3 flits)
Measured flits: 27679 27685 27687 (3 flits)
Class 0:
Remaining flits: 27679 27685 27687 (3 flits)
Measured flits: 27679 27685 27687 (3 flits)
Class 0:
Remaining flits: 27679 27685 27687 (3 flits)
Measured flits: 27679 27685 27687 (3 flits)
Class 0:
Remaining flits: 27679 27685 27687 (3 flits)
Measured flits: 27679 27685 27687 (3 flits)
Class 0:
Remaining flits: 27679 27685 27687 (3 flits)
Measured flits: 27679 27685 27687 (3 flits)
Class 0:
Remaining flits: 27679 27685 27687 (3 flits)
Measured flits: 27679 27685 27687 (3 flits)
Class 0:
Remaining flits: 27679 27685 27687 (3 flits)
Measured flits: 27679 27685 27687 (3 flits)
Class 0:
Remaining flits: 27679 27685 27687 (3 flits)
Measured flits: 27679 27685 27687 (3 flits)
Class 0:
Remaining flits: 27679 27685 27687 (3 flits)
Measured flits: 27679 27685 27687 (3 flits)
Class 0:
Remaining flits: 27679 27685 27687 (3 flits)
Measured flits: 27679 27685 27687 (3 flits)
Class 0:
Remaining flits: 27679 27685 27687 (3 flits)
Measured flits: 27679 27685 27687 (3 flits)
Class 0:
Remaining flits: 27679 27685 27687 (3 flits)
Measured flits: 27679 27685 27687 (3 flits)
Class 0:
Remaining flits: 27679 27685 27687 (3 flits)
Measured flits: 27679 27685 27687 (3 flits)
Class 0:
Remaining flits: 27679 27685 27687 (3 flits)
Measured flits: 27679 27685 27687 (3 flits)
Class 0:
Remaining flits: 27679 27685 27687 (3 flits)
Measured flits: 27679 27685 27687 (3 flits)
Class 0:
Remaining flits: 27679 27685 27687 (3 flits)
Measured flits: 27679 27685 27687 (3 flits)
Class 0:
Remaining flits: 27679 27685 27687 (3 flits)
Measured flits: 27679 27685 27687 (3 flits)
Class 0:
Remaining flits: 27679 27685 27687 (3 flits)
Measured flits: 27679 27685 27687 (3 flits)
Class 0:
Remaining flits: 27679 27685 27687 (3 flits)
Measured flits: 27679 27685 27687 (3 flits)
Class 0:
Remaining flits: 27679 27685 27687 (3 flits)
Measured flits: 27679 27685 27687 (3 flits)
Class 0:
Remaining flits: 27679 27685 27687 (3 flits)
Measured flits: 27679 27685 27687 (3 flits)
Class 0:
Remaining flits: 27679 27685 27687 (3 flits)
Measured flits: 27679 27685 27687 (3 flits)
Class 0:
Remaining flits: 27679 27685 27687 (3 flits)
Measured flits: 27679 27685 27687 (3 flits)
Class 0:
Remaining flits: 27679 27685 27687 (3 flits)
Measured flits: 27679 27685 27687 (3 flits)
Class 0:
Remaining flits: 27679 27685 27687 (3 flits)
Measured flits: 27679 27685 27687 (3 flits)
Class 0:
Remaining flits: 27679 27685 27687 (3 flits)
Measured flits: 27679 27685 27687 (3 flits)
Class 0:
Remaining flits: 27679 27685 27687 (3 flits)
Measured flits: 27679 27685 27687 (3 flits)
Class 0:
Remaining flits: 27679 27685 27687 (3 flits)
Measured flits: 27679 27685 27687 (3 flits)
Class 0:
Remaining flits: 27679 27685 27687 (3 flits)
Measured flits: 27679 27685 27687 (3 flits)
Class 0:
Remaining flits: 27679 27685 27687 (3 flits)
Measured flits: 27679 27685 27687 (3 flits)
Class 0:
Remaining flits: 27679 27685 27687 (3 flits)
Measured flits: 27679 27685 27687 (3 flits)
Class 0:
Remaining flits: 27679 27685 27687 (3 flits)
Measured flits: 27679 27685 27687 (3 flits)
Class 0:
Remaining flits: 27679 27685 27687 (3 flits)
Measured flits: 27679 27685 27687 (3 flits)
Class 0:
Remaining flits: 27679 27685 27687 (3 flits)
Measured flits: 27679 27685 27687 (3 flits)
Class 0:
Remaining flits: 27679 27685 27687 (3 flits)
Measured flits: 27679 27685 27687 (3 flits)
Class 0:
Remaining flits: 27679 27685 27687 (3 flits)
Measured flits: 27679 27685 27687 (3 flits)
Class 0:
Remaining flits: 27679 27685 27687 (3 flits)
Measured flits: 27679 27685 27687 (3 flits)
Class 0:
Remaining flits: 27679 27685 27687 (3 flits)
Measured flits: 27679 27685 27687 (3 flits)
Class 0:
Remaining flits: 27679 27685 27687 (3 flits)
Measured flits: 27679 27685 27687 (3 flits)
Class 0:
Remaining flits: 27679 27685 27687 (3 flits)
Measured flits: 27679 27685 27687 (3 flits)
Class 0:
Remaining flits: 27679 27685 27687 (3 flits)
Measured flits: 27679 27685 27687 (3 flits)
Class 0:
Remaining flits: 27679 27685 27687 (3 flits)
Measured flits: 27679 27685 27687 (3 flits)
Class 0:
Remaining flits: 27679 27685 27687 (3 flits)
Measured flits: 27679 27685 27687 (3 flits)
Class 0:
Remaining flits: 27679 27685 27687 (3 flits)
Measured flits: 27679 27685 27687 (3 flits)
Class 0:
Remaining flits: 27679 27685 27687 (3 flits)
Measured flits: 27679 27685 27687 (3 flits)
Class 0:
Remaining flits: 27679 27685 27687 (3 flits)
Measured flits: 27679 27685 27687 (3 flits)
Class 0:
Remaining flits: 27679 27685 27687 (3 flits)
Measured flits: 27679 27685 27687 (3 flits)
Class 0:
Remaining flits: 27679 27685 27687 (3 flits)
Measured flits: 27679 27685 27687 (3 flits)
Class 0:
Remaining flits: 27679 27685 27687 (3 flits)
Measured flits: 27679 27685 27687 (3 flits)
Class 0:
Remaining flits: 27679 27685 27687 (3 flits)
Measured flits: 27679 27685 27687 (3 flits)
Class 0:
Remaining flits: 27679 27685 27687 (3 flits)
Measured flits: 27679 27685 27687 (3 flits)
Class 0:
Remaining flits: 27679 27685 27687 (3 flits)
Measured flits: 27679 27685 27687 (3 flits)
Class 0:
Remaining flits: 27679 27685 27687 (3 flits)
Measured flits: 27679 27685 27687 (3 flits)
Class 0:
Remaining flits: 27679 27685 27687 (3 flits)
Measured flits: 27679 27685 27687 (3 flits)
Class 0:
Remaining flits: 27679 27685 27687 (3 flits)
Measured flits: 27679 27685 27687 (3 flits)
Class 0:
Remaining flits: 27679 27685 27687 (3 flits)
Measured flits: 27679 27685 27687 (3 flits)
Class 0:
Remaining flits: 27679 27685 27687 (3 flits)
Measured flits: 27679 27685 27687 (3 flits)
Class 0:
Remaining flits: 27679 27685 27687 (3 flits)
Measured flits: 27679 27685 27687 (3 flits)
Class 0:
Remaining flits: 27679 27685 27687 (3 flits)
Measured flits: 27679 27685 27687 (3 flits)
Class 0:
Remaining flits: 27679 27685 27687 (3 flits)
Measured flits: 27679 27685 27687 (3 flits)
Class 0:
Remaining flits: 27679 27685 27687 (3 flits)
Measured flits: 27679 27685 27687 (3 flits)
Class 0:
Remaining flits: 27679 27685 27687 (3 flits)
Measured flits: 27679 27685 27687 (3 flits)
Class 0:
Remaining flits: 27679 27685 27687 (3 flits)
Measured flits: 27679 27685 27687 (3 flits)
Class 0:
Remaining flits: 27679 27685 27687 (3 flits)
Measured flits: 27679 27685 27687 (3 flits)
Class 0:
Remaining flits: 27679 27685 27687 (3 flits)
Measured flits: 27679 27685 27687 (3 flits)
Class 0:
Remaining flits: 27679 27685 27687 (3 flits)
Measured flits: 27679 27685 27687 (3 flits)
Class 0:
Remaining flits: 27679 27685 27687 (3 flits)
Measured flits: 27679 27685 27687 (3 flits)
Class 0:
Remaining flits: 27679 27685 27687 (3 flits)
Measured flits: 27679 27685 27687 (3 flits)
Class 0:
Remaining flits: 27679 27685 27687 (3 flits)
Measured flits: 27679 27685 27687 (3 flits)
Class 0:
Remaining flits: 27679 27685 27687 (3 flits)
Measured flits: 27679 27685 27687 (3 flits)
Class 0:
Remaining flits: 27679 27685 27687 (3 flits)
Measured flits: 27679 27685 27687 (3 flits)
Class 0:
Remaining flits: 27679 27685 27687 (3 flits)
Measured flits: 27679 27685 27687 (3 flits)
Class 0:
Remaining flits: 27679 27685 27687 (3 flits)
Measured flits: 27679 27685 27687 (3 flits)
Class 0:
Remaining flits: 27679 27685 27687 (3 flits)
Measured flits: 27679 27685 27687 (3 flits)
Class 0:
Remaining flits: 27679 27685 27687 (3 flits)
Measured flits: 27679 27685 27687 (3 flits)
Class 0:
Remaining flits: 27679 27685 27687 (3 flits)
Measured flits: 27679 27685 27687 (3 flits)
Time taken is 7000 cycles
====== Traffic class 0 ======

Total number of flits generated = 27721, changed lanes = 26653
Overall minimum packet latency = 7 (1 samples)
Overall average packet latency = 27.8947 (1 samples)
Overall maximum packet latency = 125 (1 samples)
Overall minimum network latency = 8 (1 samples)
Overall average network latency = 28.8933 (1 samples)
Overall maximum network latency = 126 (1 samples)
Overall minimum flit latency = 8 (1 samples)
Overall average flit latency = 28.9353 (1 samples)
Overall maximum flit latency = 126 (1 samples)
Overall minimum fragmentation = 0 (1 samples)
Overall average fragmentation = 0 (1 samples)
Overall maximum fragmentation = 0 (1 samples)
Overall minimum injected packet rate = 0.273333 (1 samples)
Overall average injected packet rate = 0.289396 (1 samples)
Overall maximum injected packet rate = 0.305 (1 samples)
Overall minimum accepted packet rate = 0.274 (1 samples)
Overall average accepted packet rate = 0.289833 (1 samples)
Overall maximum accepted packet rate = 0.313333 (1 samples)
Overall minimum injected flit rate = 0.273333 (1 samples)
Overall average injected flit rate = 0.289396 (1 samples)
Overall maximum injected flit rate = 0.305 (1 samples)
Overall minimum accepted flit rate = 0.274 (1 samples)
Overall average accepted flit rate = 0.289833 (1 samples)
Overall maximum accepted flit rate = 0.313333 (1 samples)
Overall average injected packet size = 1 (1 samples)
Overall average accepted packet size = 1 (1 samples)
Overall average hops = 2.99712 (1 samples)
Overall throughput of the network (flits/cycle) = 9.23933
Overall throughput of the network (packets/cycle) = 9.23933
Total run time 96.9943
