make: Nothing to be done for 'all'.
Master: Running timer....
Master: Running SRC....
BEGIN Configuration File: ./examples/mesh88_lat_blackscholes
// $Id$
// 425 out of 689
topology = mesh;
k = 8;
n = 2;

// Routing
routing_function = dor;

// Flow control
num_vcs     = 1;
vc_buf_size = 4;
wait_for_tail_credit = 1;

// Router architecture
vc_allocator = islip;
sw_allocator = islip;
alloc_iters  = 1;

credit_delay   = 1;
routing_delay  = 1;
vc_alloc_delay = 1;
sw_alloc_delay = 1;

input_speedup     = 1;
output_speedup    = 1;
internal_speedup  = 1.0;

vc_busy_when_full = 0;

// Traffic
workload=netrace({/home/sarab/Downloads/BookSim_Benchmark_files/canneal_64c_simmedium.tra.bz2,100000000,1,2,1,1,0);

// Simulation
sim_type = workload;

END Configuration File: ./examples/mesh88_lat_blackscholes
Warming up...
===== Time: 50000 =====
Class 0:
Packets read from trace = 341 of 74221987 (0%)
Future packets = 1
Waiting packets = 0
Stalled packets = 331
Packets pending injection = 0
Packets in flight = 6
Minimum packet latency = 151
Average packet latency = 11042
Maximum packet latency = 32411
Minimum network latency = 151
Average network latency = 11042
Maximum network latency = 32411
Slowest packet = 6
Minimum flit latency = 44
Average flit latency = 1132.71
Maximum flit latency = 32404
Slowest flit = 34
Minimum fragmentation = 75
Average fragmentation = 10970.3
Maximum fragmentation = 32349
Minimum injected packet rate = 0 (at node 0)
Average injected packet rate = 2.8125e-06
Maximum injected packet rate = 6e-05 (at node 41)
Minimum accepted packet rate = 0 (at node 0)
Average accepted packet rate = 9.375e-07
Maximum accepted packet rate = 2e-05 (at node 5)
Minimum injected flit rate = 0 (at node 0)
Average injected flit rate = 1.40625e-05
Maximum injected flit rate = 0.0003 (at node 41)
Minimum accepted flit rate = 0 (at node 0)
Average accepted flit rate = 9.6875e-06
Maximum accepted flit rate = 0.00018 (at node 5)
Total number of injected packets = 9
Total number of injected flits = 45
Average injected packet length = 5
Total number of accepted packets = 3
Total number of accepted flits = 31
Average accepted packet length = 10.3333
Total in-flight flits = 14 (0 measured)
===== Time: 100000 =====
Class 0:
Packets read from trace = 787 of 74221987 (0%)
Future packets = 1
Waiting packets = 0
Stalled packets = 772
Packets pending injection = 0
Packets in flight = 10
Minimum packet latency = 151
Average packet latency = 15334.5
Maximum packet latency = 32411
Minimum network latency = 151
Average network latency = 15334.5
Maximum network latency = 32411
Slowest packet = 6
Minimum flit latency = 44
Average flit latency = 1766.19
Maximum flit latency = 32404
Slowest flit = 34
Minimum fragmentation = 75
Average fragmentation = 15263.2
Maximum fragmentation = 32349
Minimum injected packet rate = 0 (at node 0)
Average injected packet rate = 2.1875e-06
Maximum injected packet rate = 3e-05 (at node 41)
Minimum accepted packet rate = 0 (at node 0)
Average accepted packet rate = 6.25e-07
Maximum accepted packet rate = 1e-05 (at node 5)
Minimum injected flit rate = 0 (at node 0)
Average injected flit rate = 1.09375e-05
Maximum injected flit rate = 0.00015 (at node 41)
Minimum accepted flit rate = 0 (at node 0)
Average accepted flit rate = 5.625e-06
Maximum accepted flit rate = 9e-05 (at node 5)
Total number of injected packets = 14
Total number of injected flits = 70
Average injected packet length = 5
Total number of accepted packets = 4
Total number of accepted flits = 36
Average accepted packet length = 9
Total in-flight flits = 34 (0 measured)
===== Time: 150000 =====
Class 0:
Packets read from trace = 3722 of 74221987 (0%)
Future packets = 1
Waiting packets = 0
Stalled packets = 3561
Packets pending injection = 6
Packets in flight = 63
Minimum packet latency = 9
Average packet latency = 5040.82
Maximum packet latency = 104060
Minimum network latency = 9
Average network latency = 5037.22
Maximum network latency = 104057
Slowest packet = 3
Minimum flit latency = 7
Average flit latency = 4849.32
Maximum flit latency = 104048
Slowest flit = 19
Minimum fragmentation = 0
Average fragmentation = 3681.21
Maximum fragmentation = 103978
Minimum injected packet rate = 0 (at node 2)
Average injected packet rate = 1.57292e-05
Maximum injected packet rate = 5.33333e-05 (at node 46)
Minimum accepted packet rate = 0 (at node 1)
Average accepted packet rate = 9.47917e-06
Maximum accepted packet rate = 5.33333e-05 (at node 46)
Minimum injected flit rate = 0 (at node 2)
Average injected flit rate = 4.0625e-05
Maximum injected flit rate = 0.000233333 (at node 46)
Minimum accepted flit rate = 0 (at node 1)
Average accepted flit rate = 2.89583e-05
Maximum accepted flit rate = 0.000126667 (at node 5)
Total number of injected packets = 151
Total number of injected flits = 390
Average injected packet length = 2.58278
Total number of accepted packets = 91
Total number of accepted flits = 278
Average accepted packet length = 3.05495
Total in-flight flits = 124 (0 measured)
Warmup ends after 150000 cycles.
Beginning measurements...
===== Time: 200000 =====
Class 0:
Packets read from trace = 4192 of 74221987 (0%)
Future packets = 1
Waiting packets = 0
Stalled packets = 4010
Packets pending injection = 8
Packets in flight = 73
Minimum packet latency = 8316
Average packet latency = 8316
Maximum packet latency = 8316
Minimum network latency = 8316
Average network latency = 8316
Maximum network latency = 8316
Slowest packet = 160
Minimum flit latency = 43
Average flit latency = 47075.4
Maximum flit latency = 76568
Slowest flit = 339
Minimum fragmentation = 0
Average fragmentation = 0
Maximum fragmentation = 0
Minimum injected packet rate = 0 (at node 0)
Average injected packet rate = 3.75e-06
Maximum injected packet rate = 4e-05 (at node 23)
Minimum accepted packet rate = 0 (at node 0)
Average accepted packet rate = 2.8125e-06
Maximum accepted packet rate = 6e-05 (at node 46)
Minimum injected flit rate = 0 (at node 0)
Average injected flit rate = 1.15625e-05
Maximum injected flit rate = 0.00012 (at node 52)
Minimum accepted flit rate = 0 (at node 0)
Average accepted flit rate = 7.5e-06
Maximum accepted flit rate = 0.0001 (at node 52)
Total number of injected packets = 12
Total number of injected flits = 37
Average injected packet length = 3.08333
Total number of accepted packets = 9
Total number of accepted flits = 24
Average accepted packet length = 2.66667
Total in-flight flits = 171 (66 measured)
===== Time: 250000 =====
Class 0:
Packets read from trace = 4619 of 74221987 (0%)
Future packets = 1
Waiting packets = 0
Stalled packets = 4417
Packets pending injection = 12
Packets in flight = 81
Minimum packet latency = 8316
Average packet latency = 8316
Maximum packet latency = 8316
Minimum network latency = 8316
Average network latency = 8316
Maximum network latency = 8316
Slowest packet = 160
Minimum flit latency = 43
Average flit latency = 62603
Maximum flit latency = 134359
Slowest flit = 327
Minimum fragmentation = 0
Average fragmentation = 0
Maximum fragmentation = 0
Minimum injected packet rate = 0 (at node 0)
Average injected packet rate = 3.90625e-06
Maximum injected packet rate = 3e-05 (at node 23)
Minimum accepted packet rate = 0 (at node 0)
Average accepted packet rate = 2.65625e-06
Maximum accepted packet rate = 4e-05 (at node 23)
Minimum injected flit rate = 0 (at node 0)
Average injected flit rate = 1.25e-05
Maximum injected flit rate = 9e-05 (at node 4)
Minimum accepted flit rate = 0 (at node 0)
Average accepted flit rate = 5.3125e-06
Maximum accepted flit rate = 5e-05 (at node 15)
Total number of injected packets = 25
Total number of injected flits = 80
Average injected packet length = 3.2
Total number of accepted packets = 17
Total number of accepted flits = 34
Average accepted packet length = 2
Total in-flight flits = 221 (124 measured)
===== Time: 300000 =====
Class 0:
Packets read from trace = 5002 of 74221987 (0%)
Future packets = 1
Waiting packets = 0
Stalled packets = 4792
Packets pending injection = 16
Packets in flight = 83
Minimum packet latency = 8316
Average packet latency = 44911.7
Maximum packet latency = 86339
Minimum network latency = 8316
Average network latency = 44911.3
Maximum network latency = 86339
Slowest packet = 168
Minimum flit latency = 43
Average flit latency = 52449.1
Maximum flit latency = 134359
Slowest flit = 327
Minimum fragmentation = 0
Average fragmentation = 0
Maximum fragmentation = 0
Minimum injected packet rate = 0 (at node 0)
Average injected packet rate = 3.02083e-06
Maximum injected packet rate = 2e-05 (at node 23)
Minimum accepted packet rate = 0 (at node 0)
Average accepted packet rate = 1.97917e-06
Maximum accepted packet rate = 3.33333e-05 (at node 23)
Minimum injected flit rate = 0 (at node 0)
Average injected flit rate = 1.03125e-05
Maximum injected flit rate = 6e-05 (at node 4)
Minimum accepted flit rate = 0 (at node 0)
Average accepted flit rate = 4.47917e-06
Maximum accepted flit rate = 4e-05 (at node 23)
Total number of injected packets = 29
Total number of injected flits = 99
Average injected packet length = 3.41379
Total number of accepted packets = 19
Total number of accepted flits = 43
Average accepted packet length = 2.26316
Total in-flight flits = 232 (135 measured)
===== Time: 350000 =====
Class 0:
Packets read from trace = 5461 of 74221987 (0%)
Future packets = 1
Waiting packets = 0
Stalled packets = 5243
Packets pending injection = 20
Packets in flight = 87
Minimum packet latency = 8316
Average packet latency = 44911.7
Maximum packet latency = 86339
Minimum network latency = 8316
Average network latency = 44911.3
Maximum network latency = 86339
Slowest packet = 168
Minimum flit latency = 43
Average flit latency = 52449.1
Maximum flit latency = 134359
Slowest flit = 327
Minimum fragmentation = 0
Average fragmentation = 0
Maximum fragmentation = 0
Minimum injected packet rate = 0 (at node 0)
Average injected packet rate = 2.42187e-06
Maximum injected packet rate = 1.5e-05 (at node 23)
Minimum accepted packet rate = 0 (at node 0)
Average accepted packet rate = 1.48438e-06
Maximum accepted packet rate = 2.5e-05 (at node 23)
Minimum injected flit rate = 0 (at node 0)
Average injected flit rate = 8.4375e-06
Maximum injected flit rate = 4.5e-05 (at node 4)
Minimum accepted flit rate = 0 (at node 0)
Average accepted flit rate = 3.35937e-06
Maximum accepted flit rate = 3e-05 (at node 23)
Total number of injected packets = 31
Total number of injected flits = 108
Average injected packet length = 3.48387
Total number of accepted packets = 19
Total number of accepted flits = 43
Average accepted packet length = 2.26316
Total in-flight flits = 252 (155 measured)
===== Time: 400000 =====
Class 0:
Packets read from trace = 5856 of 74221987 (0%)
Future packets = 1
Waiting packets = 0
Stalled packets = 5626
Packets pending injection = 26
Packets in flight = 88
Minimum packet latency = 22
Average packet latency = 70796.8
Maximum packet latency = 205504
Minimum network latency = 22
Average network latency = 70796.5
Maximum network latency = 205503
Slowest packet = 158
Minimum flit latency = 22
Average flit latency = 71419.5
Maximum flit latency = 253196
Slowest flit = 308
Minimum fragmentation = 0
Average fragmentation = 14075
Maximum fragmentation = 84450
Minimum injected packet rate = 0 (at node 0)
Average injected packet rate = 2.4375e-06
Maximum injected packet rate = 1.2e-05 (at node 23)
Minimum accepted packet rate = 0 (at node 0)
Average accepted packet rate = 1.5e-06
Maximum accepted packet rate = 2.8e-05 (at node 46)
Minimum injected flit rate = 0 (at node 0)
Average injected flit rate = 8.8125e-06
Maximum injected flit rate = 3.6e-05 (at node 4)
Minimum accepted flit rate = 0 (at node 0)
Average accepted flit rate = 3.1875e-06
Maximum accepted flit rate = 2.8e-05 (at node 23)
Total number of injected packets = 39
Total number of injected flits = 141
Average injected packet length = 3.61538
Total number of accepted packets = 24
Total number of accepted flits = 51
Average accepted packet length = 2.125
Total in-flight flits = 270 (177 measured)
===== Time: 450000 =====
Class 0:
Packets read from trace = 6240 of 74221987 (0%)
Future packets = 1
Waiting packets = 0
Stalled packets = 5999
Packets pending injection = 34
Packets in flight = 89
Minimum packet latency = 22
Average packet latency = 83430.1
Maximum packet latency = 205504
Minimum network latency = 22
Average network latency = 83429.9
Maximum network latency = 205503
Slowest packet = 158
Minimum flit latency = 22
Average flit latency = 72468.8
Maximum flit latency = 328928
Slowest flit = 322
Minimum fragmentation = 0
Average fragmentation = 34804.1
Maximum fragmentation = 159179
Minimum injected packet rate = 0 (at node 0)
Average injected packet rate = 2.13542e-06
Maximum injected packet rate = 1e-05 (at node 23)
Minimum accepted packet rate = 0 (at node 0)
Average accepted packet rate = 1.35417e-06
Maximum accepted packet rate = 2.66667e-05 (at node 46)
Minimum injected flit rate = 0 (at node 0)
Average injected flit rate = 7.8125e-06
Maximum injected flit rate = 3e-05 (at node 4)
Minimum accepted flit rate = 0 (at node 0)
Average accepted flit rate = 2.96875e-06
Maximum accepted flit rate = 3e-05 (at node 58)
Total number of injected packets = 41
Total number of injected flits = 150
Average injected packet length = 3.65854
Total number of accepted packets = 26
Total number of accepted flits = 57
Average accepted packet length = 2.19231
Total in-flight flits = 279 (187 measured)
===== Time: 500000 =====
Class 0:
Packets read from trace = 6661 of 74221987 (0%)
Future packets = 1
Waiting packets = 0
Stalled packets = 6412
Packets pending injection = 39
Packets in flight = 92
Minimum packet latency = 22
Average packet latency = 83430.1
Maximum packet latency = 205504
Minimum network latency = 22
Average network latency = 83429.9
Maximum network latency = 205503
Slowest packet = 158
Minimum flit latency = 22
Average flit latency = 68846.4
Maximum flit latency = 328928
Slowest flit = 322
Minimum fragmentation = 0
Average fragmentation = 34804.1
Maximum fragmentation = 159179
Minimum injected packet rate = 0 (at node 1)
Average injected packet rate = 1.96429e-06
Maximum injected packet rate = 8.57143e-06 (at node 23)
Minimum accepted packet rate = 0 (at node 0)
Average accepted packet rate = 1.16071e-06
Maximum accepted packet rate = 2.28571e-05 (at node 46)
Minimum injected flit rate = 0 (at node 1)
Average injected flit rate = 7.32143e-06
Maximum injected flit rate = 2.57143e-05 (at node 0)
Minimum accepted flit rate = 0 (at node 0)
Average accepted flit rate = 2.67857e-06
Maximum accepted flit rate = 2.57143e-05 (at node 58)
Total number of injected packets = 44
Total number of injected flits = 164
Average injected packet length = 3.72727
Total number of accepted packets = 26
Total number of accepted flits = 60
Average accepted packet length = 2.30769
Total in-flight flits = 291 (199 measured)
===== Time: 550000 =====
Class 0:
Packets read from trace = 7010 of 74221987 (0%)
Future packets = 1
Waiting packets = 0
Stalled packets = 6755
Packets pending injection = 43
Packets in flight = 94
Minimum packet latency = 22
Average packet latency = 83430.1
Maximum packet latency = 205504
Minimum network latency = 22
Average network latency = 83429.9
Maximum network latency = 205503
Slowest packet = 158
Minimum flit latency = 22
Average flit latency = 68846.4
Maximum flit latency = 328928
Slowest flit = 322
Minimum fragmentation = 0
Average fragmentation = 34804.1
Maximum fragmentation = 159179
Minimum injected packet rate = 0 (at node 1)
Average injected packet rate = 1.75781e-06
Maximum injected packet rate = 7.5e-06 (at node 23)
Minimum accepted packet rate = 0 (at node 0)
Average accepted packet rate = 1.01562e-06
Maximum accepted packet rate = 2e-05 (at node 46)
Minimum injected flit rate = 0 (at node 1)
Average injected flit rate = 6.60156e-06
Maximum injected flit rate = 2.25e-05 (at node 0)
Minimum accepted flit rate = 0 (at node 0)
Average accepted flit rate = 2.34375e-06
Maximum accepted flit rate = 2.25e-05 (at node 58)
Total number of injected packets = 45
Total number of injected flits = 169
Average injected packet length = 3.75556
Total number of accepted packets = 26
Total number of accepted flits = 60
Average accepted packet length = 2.30769
Total in-flight flits = 301 (209 measured)
===== Time: 600000 =====
Class 0:
Packets read from trace = 7504 of 74221987 (0%)
Future packets = 1
Waiting packets = 0
Stalled packets = 7241
Packets pending injection = 45
Packets in flight = 100
Minimum packet latency = 22
Average packet latency = 83430.1
Maximum packet latency = 205504
Minimum network latency = 22
Average network latency = 83429.9
Maximum network latency = 205503
Slowest packet = 158
Minimum flit latency = 22
Average flit latency = 68846.4
Maximum flit latency = 328928
Slowest flit = 322
Minimum fragmentation = 0
Average fragmentation = 34804.1
Maximum fragmentation = 159179
Minimum injected packet rate = 0 (at node 1)
Average injected packet rate = 1.73611e-06
Maximum injected packet rate = 6.66667e-06 (at node 23)
Minimum accepted packet rate = 0 (at node 0)
Average accepted packet rate = 9.02778e-07
Maximum accepted packet rate = 1.77778e-05 (at node 46)
Minimum injected flit rate = 0 (at node 1)
Average injected flit rate = 6.66667e-06
Maximum injected flit rate = 2.22222e-05 (at node 38)
Minimum accepted flit rate = 0 (at node 0)
Average accepted flit rate = 2.08333e-06
Maximum accepted flit rate = 2e-05 (at node 58)
Total number of injected packets = 50
Total number of injected flits = 192
Average injected packet length = 3.84
Total number of accepted packets = 26
Total number of accepted flits = 60
Average accepted packet length = 2.30769
Total in-flight flits = 331 (239 measured)
===== Time: 650000 =====
Class 0:
Packets read from trace = 7859 of 74221987 (0%)
Future packets = 1
Waiting packets = 0
Stalled packets = 7591
Packets pending injection = 46
Packets in flight = 104
Minimum packet latency = 22
Average packet latency = 83430.1
Maximum packet latency = 205504
Minimum network latency = 22
Average network latency = 83429.9
Maximum network latency = 205503
Slowest packet = 158
Minimum flit latency = 22
Average flit latency = 68846.4
Maximum flit latency = 328928
Slowest flit = 322
Minimum fragmentation = 0
Average fragmentation = 34804.1
Maximum fragmentation = 159179
Minimum injected packet rate = 0 (at node 1)
Average injected packet rate = 1.6875e-06
Maximum injected packet rate = 6e-06 (at node 23)
Minimum accepted packet rate = 0 (at node 0)
Average accepted packet rate = 8.125e-07
Maximum accepted packet rate = 1.6e-05 (at node 46)
Minimum injected flit rate = 0 (at node 1)
Average injected flit rate = 6.59375e-06
Maximum injected flit rate = 3e-05 (at node 38)
Minimum accepted flit rate = 0 (at node 0)
Average accepted flit rate = 1.875e-06
Maximum accepted flit rate = 1.8e-05 (at node 58)
Total number of injected packets = 54
Total number of injected flits = 211
Average injected packet length = 3.90741
Total number of accepted packets = 26
Total number of accepted flits = 60
Average accepted packet length = 2.30769
Total in-flight flits = 351 (259 measured)
Completed measurements after 650000 cycles.
Draining remaining packets ...
Class 0:
Remaining flits: 14 29 55 56 57 58 59 65 66 67 [...] (351 flits)
Measured flits: 406 407 408 409 410 411 412 413 414 415 [...] (259 flits)
Class 0:
Remaining flits: 14 29 55 56 57 58 59 65 66 67 [...] (348 flits)
Measured flits: 406 407 408 409 410 411 412 413 414 415 [...] (257 flits)
Class 0:
Remaining flits: 14 29 55 56 57 58 59 65 66 67 [...] (343 flits)
Measured flits: 406 407 408 409 410 411 412 413 414 415 [...] (252 flits)
Class 0:
Remaining flits: 14 29 55 56 57 58 59 65 66 67 [...] (337 flits)
Measured flits: 406 407 408 409 410 411 412 413 414 415 [...] (247 flits)
Class 0:
Remaining flits: 14 29 55 56 57 58 59 65 66 67 [...] (326 flits)
Measured flits: 406 407 408 409 410 411 412 413 414 415 [...] (237 flits)
Class 0:
Remaining flits: 14 29 55 56 57 58 59 65 66 67 [...] (325 flits)
Measured flits: 406 407 408 409 410 411 412 413 414 415 [...] (236 flits)
Class 0:
Remaining flits: 14 29 55 56 57 58 59 65 66 67 [...] (318 flits)
Measured flits: 406 407 408 409 410 411 412 413 414 415 [...] (229 flits)
Class 0:
Remaining flits: 14 29 55 56 57 58 59 65 66 67 [...] (315 flits)
Measured flits: 406 407 408 409 410 411 412 413 414 415 [...] (226 flits)
Class 0:
Remaining flits: 14 29 55 56 57 58 59 65 66 67 [...] (307 flits)
Measured flits: 406 407 408 409 410 411 412 417 419 420 [...] (218 flits)
Class 0:
Remaining flits: 14 29 55 56 57 58 59 65 66 67 [...] (300 flits)
Measured flits: 406 407 408 409 410 411 412 419 420 421 [...] (211 flits)
Class 0:
Remaining flits: 14 29 55 56 57 58 59 65 66 67 [...] (294 flits)
Measured flits: 406 407 408 409 410 411 412 419 420 421 [...] (205 flits)
Class 0:
Remaining flits: 14 29 55 56 57 58 59 65 66 67 [...] (286 flits)
Measured flits: 406 407 408 409 410 411 412 419 420 421 [...] (197 flits)
Class 0:
Remaining flits: 14 29 55 56 57 58 59 65 66 67 [...] (285 flits)
Measured flits: 406 407 408 409 410 411 412 419 420 421 [...] (196 flits)
Class 0:
Remaining flits: 14 29 55 56 57 58 59 65 66 67 [...] (278 flits)
Measured flits: 406 407 408 409 410 411 412 419 420 421 [...] (189 flits)
Class 0:
Remaining flits: 14 29 55 56 57 58 59 65 66 67 [...] (275 flits)
Measured flits: 406 407 408 409 410 411 412 419 420 421 [...] (186 flits)
Class 0:
Remaining flits: 14 29 55 56 57 58 59 65 66 67 [...] (274 flits)
Measured flits: 406 407 408 409 410 411 412 419 420 421 [...] (185 flits)
Class 0:
Remaining flits: 14 29 55 56 57 58 59 65 66 67 [...] (270 flits)
Measured flits: 406 407 408 409 410 411 412 419 420 421 [...] (181 flits)
Class 0:
Remaining flits: 14 29 55 56 57 58 59 65 66 67 [...] (270 flits)
Measured flits: 406 407 408 409 410 411 412 419 420 421 [...] (181 flits)
Class 0:
Remaining flits: 14 29 55 56 57 58 59 65 66 67 [...] (266 flits)
Measured flits: 406 407 408 409 410 411 412 419 420 421 [...] (177 flits)
Class 0:
Remaining flits: 14 29 55 56 57 58 59 65 66 67 [...] (265 flits)
Measured flits: 406 407 408 409 410 411 412 419 420 421 [...] (176 flits)
Class 0:
Remaining flits: 14 29 55 56 57 58 59 65 66 67 [...] (265 flits)
Measured flits: 406 407 408 409 410 411 412 419 420 421 [...] (176 flits)
Class 0:
Remaining flits: 14 29 55 56 57 58 59 65 66 67 [...] (265 flits)
Measured flits: 406 407 408 409 410 411 412 419 420 421 [...] (176 flits)
Class 0:
Remaining flits: 14 29 55 56 57 58 59 65 66 67 [...] (265 flits)
Measured flits: 406 407 408 409 410 411 412 419 420 421 [...] (176 flits)
Class 0:
Remaining flits: 14 29 55 56 57 58 59 65 66 67 [...] (265 flits)
Measured flits: 406 407 408 409 410 411 412 419 420 421 [...] (176 flits)
Class 0:
Remaining flits: 14 29 55 56 57 58 59 65 66 67 [...] (265 flits)
Measured flits: 406 407 408 409 410 411 412 419 420 421 [...] (176 flits)
Class 0:
Remaining flits: 14 29 55 56 57 58 59 65 66 67 [...] (265 flits)
Measured flits: 406 407 408 409 410 411 412 419 420 421 [...] (176 flits)
Class 0:
Remaining flits: 14 29 55 56 57 58 59 65 66 67 [...] (265 flits)
Measured flits: 406 407 408 409 410 411 412 419 420 421 [...] (176 flits)
Class 0:
Remaining flits: 14 29 55 56 57 58 59 65 66 67 [...] (265 flits)
Measured flits: 406 407 408 409 410 411 412 419 420 421 [...] (176 flits)
Class 0:
Remaining flits: 14 29 55 56 57 58 59 65 66 67 [...] (265 flits)
Measured flits: 406 407 408 409 410 411 412 419 420 421 [...] (176 flits)
Class 0:
Remaining flits: 14 29 55 56 57 58 59 65 66 67 [...] (265 flits)
Measured flits: 406 407 408 409 410 411 412 419 420 421 [...] (176 flits)
Class 0:
Remaining flits: 14 29 55 56 57 58 59 65 66 67 [...] (265 flits)
Measured flits: 406 407 408 409 410 411 412 419 420 421 [...] (176 flits)
Class 0:
Remaining flits: 14 29 55 56 57 58 59 65 66 67 [...] (265 flits)
Measured flits: 406 407 408 409 410 411 412 419 420 421 [...] (176 flits)
Class 0:
Remaining flits: 14 29 55 56 57 58 59 65 66 67 [...] (265 flits)
Measured flits: 406 407 408 409 410 411 412 419 420 421 [...] (176 flits)
Class 0:
Remaining flits: 14 29 55 56 57 58 59 65 66 67 [...] (265 flits)
Measured flits: 406 407 408 409 410 411 412 419 420 421 [...] (176 flits)
Class 0:
Remaining flits: 14 29 55 56 57 58 59 65 66 67 [...] (265 flits)
Measured flits: 406 407 408 409 410 411 412 419 420 421 [...] (176 flits)
Class 0:
Remaining flits: 14 29 55 56 57 58 59 65 66 67 [...] (265 flits)
Measured flits: 406 407 408 409 410 411 412 419 420 421 [...] (176 flits)
Class 0:
Remaining flits: 14 29 55 56 57 58 59 65 66 67 [...] (265 flits)
Measured flits: 406 407 408 409 410 411 412 419 420 421 [...] (176 flits)
Class 0:
Remaining flits: 14 29 55 56 57 58 59 65 66 67 [...] (265 flits)
Measured flits: 406 407 408 409 410 411 412 419 420 421 [...] (176 flits)
Class 0:
Remaining flits: 14 29 55 56 57 58 59 65 66 67 [...] (265 flits)
Measured flits: 406 407 408 409 410 411 412 419 420 421 [...] (176 flits)
Class 0:
Remaining flits: 14 29 55 56 57 58 59 65 66 67 [...] (265 flits)
Measured flits: 406 407 408 409 410 411 412 419 420 421 [...] (176 flits)
Class 0:
Remaining flits: 14 29 55 56 57 58 59 65 66 67 [...] (265 flits)
Measured flits: 406 407 408 409 410 411 412 419 420 421 [...] (176 flits)
Class 0:
Remaining flits: 14 29 55 56 57 58 59 65 66 67 [...] (265 flits)
Measured flits: 406 407 408 409 410 411 412 419 420 421 [...] (176 flits)
Class 0:
Remaining flits: 14 29 55 56 57 58 59 65 66 67 [...] (265 flits)
Measured flits: 406 407 408 409 410 411 412 419 420 421 [...] (176 flits)
Class 0:
Remaining flits: 14 29 55 56 57 58 59 65 66 67 [...] (265 flits)
Measured flits: 406 407 408 409 410 411 412 419 420 421 [...] (176 flits)
Class 0:
Remaining flits: 14 29 55 56 57 58 59 65 66 67 [...] (265 flits)
Measured flits: 406 407 408 409 410 411 412 419 420 421 [...] (176 flits)
Class 0:
Remaining flits: 14 29 55 56 57 58 59 65 66 67 [...] (265 flits)
Measured flits: 406 407 408 409 410 411 412 419 420 421 [...] (176 flits)
Class 0:
Remaining flits: 14 29 55 56 57 58 59 65 66 67 [...] (265 flits)
Measured flits: 406 407 408 409 410 411 412 419 420 421 [...] (176 flits)
Class 0:
Remaining flits: 14 29 55 56 57 58 59 65 66 67 [...] (265 flits)
Measured flits: 406 407 408 409 410 411 412 419 420 421 [...] (176 flits)
Class 0:
Remaining flits: 14 29 55 56 57 58 59 65 66 67 [...] (265 flits)
Measured flits: 406 407 408 409 410 411 412 419 420 421 [...] (176 flits)
Class 0:
Remaining flits: 14 29 55 56 57 58 59 65 66 67 [...] (265 flits)
Measured flits: 406 407 408 409 410 411 412 419 420 421 [...] (176 flits)
Class 0:
Remaining flits: 14 29 55 56 57 58 59 65 66 67 [...] (265 flits)
Measured flits: 406 407 408 409 410 411 412 419 420 421 [...] (176 flits)
Class 0:
Remaining flits: 14 29 55 56 57 58 59 65 66 67 [...] (265 flits)
Measured flits: 406 407 408 409 410 411 412 419 420 421 [...] (176 flits)
Class 0:
Remaining flits: 14 29 55 56 57 58 59 65 66 67 [...] (265 flits)
Measured flits: 406 407 408 409 410 411 412 419 420 421 [...] (176 flits)
Class 0:
Remaining flits: 14 29 55 56 57 58 59 65 66 67 [...] (265 flits)
Measured flits: 406 407 408 409 410 411 412 419 420 421 [...] (176 flits)
Class 0:
Remaining flits: 14 29 55 56 57 58 59 65 66 67 [...] (265 flits)
Measured flits: 406 407 408 409 410 411 412 419 420 421 [...] (176 flits)
Class 0:
Remaining flits: 14 29 55 56 57 58 59 65 66 67 [...] (265 flits)
Measured flits: 406 407 408 409 410 411 412 419 420 421 [...] (176 flits)
Class 0:
Remaining flits: 14 29 55 56 57 58 59 65 66 67 [...] (265 flits)
Measured flits: 406 407 408 409 410 411 412 419 420 421 [...] (176 flits)
Class 0:
Remaining flits: 14 29 55 56 57 58 59 65 66 67 [...] (265 flits)
Measured flits: 406 407 408 409 410 411 412 419 420 421 [...] (176 flits)
Class 0:
Remaining flits: 14 29 55 56 57 58 59 65 66 67 [...] (265 flits)
Measured flits: 406 407 408 409 410 411 412 419 420 421 [...] (176 flits)
Class 0:
Remaining flits: 14 29 55 56 57 58 59 65 66 67 [...] (265 flits)
Measured flits: 406 407 408 409 410 411 412 419 420 421 [...] (176 flits)
Class 0:
Remaining flits: 14 29 55 56 57 58 59 65 66 67 [...] (265 flits)
Measured flits: 406 407 408 409 410 411 412 419 420 421 [...] (176 flits)
Class 0:
Remaining flits: 14 29 55 56 57 58 59 65 66 67 [...] (265 flits)
Measured flits: 406 407 408 409 410 411 412 419 420 421 [...] (176 flits)
Class 0:
Remaining flits: 14 29 55 56 57 58 59 65 66 67 [...] (265 flits)
Measured flits: 406 407 408 409 410 411 412 419 420 421 [...] (176 flits)
Class 0:
Remaining flits: 14 29 55 56 57 58 59 65 66 67 [...] (265 flits)
Measured flits: 406 407 408 409 410 411 412 419 420 421 [...] (176 flits)
Class 0:
Remaining flits: 14 29 55 56 57 58 59 65 66 67 [...] (265 flits)
Measured flits: 406 407 408 409 410 411 412 419 420 421 [...] (176 flits)
Class 0:
Remaining flits: 14 29 55 56 57 58 59 65 66 67 [...] (265 flits)
Measured flits: 406 407 408 409 410 411 412 419 420 421 [...] (176 flits)
Class 0:
Remaining flits: 14 29 55 56 57 58 59 65 66 67 [...] (265 flits)
Measured flits: 406 407 408 409 410 411 412 419 420 421 [...] (176 flits)
Class 0:
Remaining flits: 14 29 55 56 57 58 59 65 66 67 [...] (265 flits)
Measured flits: 406 407 408 409 410 411 412 419 420 421 [...] (176 flits)
Class 0:
Remaining flits: 14 29 55 56 57 58 59 65 66 67 [...] (265 flits)
Measured flits: 406 407 408 409 410 411 412 419 420 421 [...] (176 flits)
Class 0:
Remaining flits: 14 29 55 56 57 58 59 65 66 67 [...] (265 flits)
Measured flits: 406 407 408 409 410 411 412 419 420 421 [...] (176 flits)
Class 0:
Remaining flits: 14 29 55 56 57 58 59 65 66 67 [...] (265 flits)
Measured flits: 406 407 408 409 410 411 412 419 420 421 [...] (176 flits)
Class 0:
Remaining flits: 14 29 55 56 57 58 59 65 66 67 [...] (265 flits)
Measured flits: 406 407 408 409 410 411 412 419 420 421 [...] (176 flits)
Class 0:
Remaining flits: 14 29 55 56 57 58 59 65 66 67 [...] (265 flits)
Measured flits: 406 407 408 409 410 411 412 419 420 421 [...] (176 flits)
Class 0:
Remaining flits: 14 29 55 56 57 58 59 65 66 67 [...] (265 flits)
Measured flits: 406 407 408 409 410 411 412 419 420 421 [...] (176 flits)
Class 0:
Remaining flits: 14 29 55 56 57 58 59 65 66 67 [...] (265 flits)
Measured flits: 406 407 408 409 410 411 412 419 420 421 [...] (176 flits)
Class 0:
Remaining flits: 14 29 55 56 57 58 59 65 66 67 [...] (265 flits)
Measured flits: 406 407 408 409 410 411 412 419 420 421 [...] (176 flits)
Class 0:
Remaining flits: 14 29 55 56 57 58 59 65 66 67 [...] (265 flits)
Measured flits: 406 407 408 409 410 411 412 419 420 421 [...] (176 flits)
Class 0:
Remaining flits: 14 29 55 56 57 58 59 65 66 67 [...] (265 flits)
Measured flits: 406 407 408 409 410 411 412 419 420 421 [...] (176 flits)
Class 0:
Remaining flits: 14 29 55 56 57 58 59 65 66 67 [...] (265 flits)
Measured flits: 406 407 408 409 410 411 412 419 420 421 [...] (176 flits)
Class 0:
Remaining flits: 14 29 55 56 57 58 59 65 66 67 [...] (265 flits)
Measured flits: 406 407 408 409 410 411 412 419 420 421 [...] (176 flits)
Class 0:
Remaining flits: 14 29 55 56 57 58 59 65 66 67 [...] (265 flits)
Measured flits: 406 407 408 409 410 411 412 419 420 421 [...] (176 flits)
Class 0:
Remaining flits: 14 29 55 56 57 58 59 65 66 67 [...] (265 flits)
Measured flits: 406 407 408 409 410 411 412 419 420 421 [...] (176 flits)
Class 0:
Remaining flits: 14 29 55 56 57 58 59 65 66 67 [...] (265 flits)
Measured flits: 406 407 408 409 410 411 412 419 420 421 [...] (176 flits)
Class 0:
Remaining flits: 14 29 55 56 57 58 59 65 66 67 [...] (265 flits)
Measured flits: 406 407 408 409 410 411 412 419 420 421 [...] (176 flits)
Class 0:
Remaining flits: 14 29 55 56 57 58 59 65 66 67 [...] (265 flits)
Measured flits: 406 407 408 409 410 411 412 419 420 421 [...] (176 flits)
Class 0:
Remaining flits: 14 29 55 56 57 58 59 65 66 67 [...] (265 flits)
Measured flits: 406 407 408 409 410 411 412 419 420 421 [...] (176 flits)
Class 0:
Remaining flits: 14 29 55 56 57 58 59 65 66 67 [...] (265 flits)
Measured flits: 406 407 408 409 410 411 412 419 420 421 [...] (176 flits)
Class 0:
Remaining flits: 14 29 55 56 57 58 59 65 66 67 [...] (265 flits)
Measured flits: 406 407 408 409 410 411 412 419 420 421 [...] (176 flits)
Class 0:
Remaining flits: 14 29 55 56 57 58 59 65 66 67 [...] (265 flits)
Measured flits: 406 407 408 409 410 411 412 419 420 421 [...] (176 flits)
Class 0:
Remaining flits: 14 29 55 56 57 58 59 65 66 67 [...] (265 flits)
Measured flits: 406 407 408 409 410 411 412 419 420 421 [...] (176 flits)
Class 0:
Remaining flits: 14 29 55 56 57 58 59 65 66 67 [...] (265 flits)
Measured flits: 406 407 408 409 410 411 412 419 420 421 [...] (176 flits)
Class 0:
Remaining flits: 14 29 55 56 57 58 59 65 66 67 [...] (265 flits)
Measured flits: 406 407 408 409 410 411 412 419 420 421 [...] (176 flits)
Class 0:
Remaining flits: 14 29 55 56 57 58 59 65 66 67 [...] (265 flits)
Measured flits: 406 407 408 409 410 411 412 419 420 421 [...] (176 flits)
Class 0:
Remaining flits: 14 29 55 56 57 58 59 65 66 67 [...] (265 flits)
Measured flits: 406 407 408 409 410 411 412 419 420 421 [...] (176 flits)
Class 0:
Remaining flits: 14 29 55 56 57 58 59 65 66 67 [...] (265 flits)
Measured flits: 406 407 408 409 410 411 412 419 420 421 [...] (176 flits)
Class 0:
Remaining flits: 14 29 55 56 57 58 59 65 66 67 [...] (265 flits)
Measured flits: 406 407 408 409 410 411 412 419 420 421 [...] (176 flits)
Class 0:
Remaining flits: 14 29 55 56 57 58 59 65 66 67 [...] (265 flits)
Measured flits: 406 407 408 409 410 411 412 419 420 421 [...] (176 flits)
Class 0:
Remaining flits: 14 29 55 56 57 58 59 65 66 67 [...] (265 flits)
Measured flits: 406 407 408 409 410 411 412 419 420 421 [...] (176 flits)
Class 0:
Remaining flits: 14 29 55 56 57 58 59 65 66 67 [...] (265 flits)
Measured flits: 406 407 408 409 410 411 412 419 420 421 [...] (176 flits)
Class 0:
Remaining flits: 14 29 55 56 57 58 59 65 66 67 [...] (265 flits)
Measured flits: 406 407 408 409 410 411 412 419 420 421 [...] (176 flits)
Class 0:
Remaining flits: 14 29 55 56 57 58 59 65 66 67 [...] (265 flits)
Measured flits: 406 407 408 409 410 411 412 419 420 421 [...] (176 flits)
Time taken is 651000 cycles
====== Traffic class 0 ======

Total number of flits generated = 689, changed lanes = 0
Overall minimum packet latency = 22 (1 samples)
Overall average packet latency = 218337 (1 samples)
Overall maximum packet latency = 544599 (1 samples)
Overall minimum network latency = 22 (1 samples)
Overall average network latency = 210097 (1 samples)
Overall maximum network latency = 497158 (1 samples)
Overall minimum flit latency = 22 (1 samples)
Overall average flit latency = 164389 (1 samples)
Overall maximum flit latency = 544627 (1 samples)
Overall minimum fragmentation = 0 (1 samples)
Overall average fragmentation = 38901 (1 samples)
Overall maximum fragmentation = 429658 (1 samples)
Overall minimum injected packet rate = 0 (1 samples)
Overall average injected packet rate = 1.6875e-06 (1 samples)
Overall maximum injected packet rate = 6e-06 (1 samples)
Overall minimum accepted packet rate = 0 (1 samples)
Overall average accepted packet rate = 8.125e-07 (1 samples)
Overall maximum accepted packet rate = 1.6e-05 (1 samples)
Overall minimum injected flit rate = 0 (1 samples)
Overall average injected flit rate = 6.59375e-06 (1 samples)
Overall maximum injected flit rate = 3e-05 (1 samples)
Overall minimum accepted flit rate = 0 (1 samples)
Overall average accepted flit rate = 1.875e-06 (1 samples)
Overall maximum accepted flit rate = 1.8e-05 (1 samples)
Overall average injected packet size = 3.90741 (1 samples)
Overall average accepted packet size = 2.30769 (1 samples)
Overall average hops = 5.92593 (1 samples)
Overall throughput of the network (flits/cycle) = 0.000848
Overall throughput of the network (packets/cycle) = 0.00028
Overall workload runtime = 500000 (1 samples)

The distribution of the source packets of size 1 is: 

Source [0] = 1
Source [1] = 1
Source [2] = 0
Source [3] = 4
Source [4] = 1
Source [5] = 1
Source [6] = 1
Source [7] = 1
Source [8] = 1
Source [9] = 1
Source [10] = 2
Source [11] = 1
Source [12] = 2
Source [13] = 1
Source [14] = 1
Source [15] = 3
Source [16] = 1
Source [17] = 2
Source [18] = 1
Source [19] = 3
Source [20] = 1
Source [21] = 1
Source [22] = 1
Source [23] = 3
Source [24] = 1
Source [25] = 1
Source [26] = 1
Source [27] = 1
Source [28] = 2
Source [29] = 1
Source [30] = 2
Source [31] = 2
Source [32] = 1
Source [33] = 2
Source [34] = 2
Source [35] = 1
Source [36] = 2
Source [37] = 1
Source [38] = 2
Source [39] = 3
Source [40] = 2
Source [41] = 2
Source [42] = 2
Source [43] = 1
Source [44] = 2
Source [45] = 1
Source [46] = 1
Source [47] = 3
Source [48] = 1
Source [49] = 2
Source [50] = 2
Source [51] = 2
Source [52] = 3
Source [53] = 1
Source [54] = 1
Source [55] = 2
Source [56] = 1
Source [57] = 1
Source [58] = 2
Source [59] = 2
Source [60] = 3
Source [61] = 2
Source [62] = 2
Source [63] = 3
The distribution of the source packets of size 5 is: 

Source [0] = 4
Source [1] = 0
Source [2] = 2
Source [3] = 0
Source [4] = 3
Source [5] = 3
Source [6] = 2
Source [7] = 3
Source [8] = 2
Source [9] = 3
Source [10] = 1
Source [11] = 0
Source [12] = 3
Source [13] = 1
Source [14] = 2
Source [15] = 0
Source [16] = 2
Source [17] = 1
Source [18] = 1
Source [19] = 1
Source [20] = 1
Source [21] = 1
Source [22] = 2
Source [23] = 3
Source [24] = 2
Source [25] = 2
Source [26] = 0
Source [27] = 1
Source [28] = 2
Source [29] = 1
Source [30] = 3
Source [31] = 0
Source [32] = 1
Source [33] = 3
Source [34] = 3
Source [35] = 0
Source [36] = 1
Source [37] = 2
Source [38] = 5
Source [39] = 1
Source [40] = 3
Source [41] = 3
Source [42] = 3
Source [43] = 1
Source [44] = 3
Source [45] = 1
Source [46] = 8
Source [47] = 1
Source [48] = 3
Source [49] = 0
Source [50] = 2
Source [51] = 1
Source [52] = 2
Source [53] = 0
Source [54] = 4
Source [55] = 0
Source [56] = 3
Source [57] = 1
Source [58] = 4
Source [59] = 1
Source [60] = 2
Source [61] = 0
Source [62] = 2
Source [63] = 1
The distribution of the dest packets of size 1 is: 

dest [0] = 2
dest [1] = 1
dest [2] = 2
dest [3] = 2
dest [4] = 1
dest [5] = 1
dest [6] = 2
dest [7] = 0
dest [8] = 2
dest [9] = 0
dest [10] = 2
dest [11] = 0
dest [12] = 1
dest [13] = 0
dest [14] = 2
dest [15] = 0
dest [16] = 1
dest [17] = 0
dest [18] = 2
dest [19] = 2
dest [20] = 2
dest [21] = 0
dest [22] = 2
dest [23] = 10
dest [24] = 2
dest [25] = 0
dest [26] = 2
dest [27] = 0
dest [28] = 2
dest [29] = 0
dest [30] = 2
dest [31] = 0
dest [32] = 1
dest [33] = 2
dest [34] = 2
dest [35] = 0
dest [36] = 2
dest [37] = 0
dest [38] = 2
dest [39] = 0
dest [40] = 2
dest [41] = 0
dest [42] = 2
dest [43] = 0
dest [44] = 2
dest [45] = 0
dest [46] = 28
dest [47] = 0
dest [48] = 2
dest [49] = 0
dest [50] = 2
dest [51] = 0
dest [52] = 0
dest [53] = 0
dest [54] = 2
dest [55] = 0
dest [56] = 1
dest [57] = 0
dest [58] = 2
dest [59] = 0
dest [60] = 2
dest [61] = 1
dest [62] = 2
dest [63] = 2
The distribution of the dest packets of size 5 is: 

dest [0] = 0
dest [1] = 0
dest [2] = 11
dest [3] = 1
dest [4] = 1
dest [5] = 12
dest [6] = 0
dest [7] = 0
dest [8] = 0
dest [9] = 0
dest [10] = 1
dest [11] = 1
dest [12] = 1
dest [13] = 1
dest [14] = 0
dest [15] = 2
dest [16] = 8
dest [17] = 1
dest [18] = 1
dest [19] = 1
dest [20] = 1
dest [21] = 0
dest [22] = 0
dest [23] = 5
dest [24] = 0
dest [25] = 0
dest [26] = 0
dest [27] = 0
dest [28] = 1
dest [29] = 1
dest [30] = 1
dest [31] = 2
dest [32] = 1
dest [33] = 0
dest [34] = 1
dest [35] = 1
dest [36] = 1
dest [37] = 1
dest [38] = 1
dest [39] = 3
dest [40] = 8
dest [41] = 2
dest [42] = 1
dest [43] = 1
dest [44] = 1
dest [45] = 0
dest [46] = 1
dest [47] = 10
dest [48] = 1
dest [49] = 1
dest [50] = 1
dest [51] = 1
dest [52] = 2
dest [53] = 0
dest [54] = 1
dest [55] = 1
dest [56] = 1
dest [57] = 0
dest [58] = 8
dest [59] = 1
dest [60] = 2
dest [61] = 8
dest [62] = 1
dest [63] = 2Total run time 4970.9
