make: Nothing to be done for 'all'.
Master: Running timer....
Master: Running SRC....
BEGIN Configuration File: ./examples/mesh88_lat_blackscholes
// $Id$
//640 out of 815
topology = mesh;
k = 8;
n = 2;

// Routing
routing_function = dor;

// Flow control
num_vcs     = 1;
vc_buf_size = 4;
wait_for_tail_credit = 1;

// Router architecture
vc_allocator = islip;
sw_allocator = islip;
alloc_iters  = 1;

credit_delay   = 1;
routing_delay  = 1;
vc_alloc_delay = 1;
sw_alloc_delay = 1;

input_speedup     = 1;
output_speedup    = 1;
internal_speedup  = 1.0;

vc_busy_when_full = 0;

// Traffic
workload=netrace({/home/sarab/Downloads/BookSim_Benchmark_files/vips_64c_simmedium.tra.bz2,100000000,1,2,1,1,0);

// Simulation
sim_type = workload;

END Configuration File: ./examples/mesh88_lat_blackscholes
Warming up...
===== Time: 50000 =====
Class 0:
Packets read from trace = 451 of 100000000 (0%)
Future packets = 1
Waiting packets = 0
Stalled packets = 447
Packets pending injection = 0
Packets in flight = 2
Minimum packet latency = 24
Average packet latency = 24
Maximum packet latency = 24
Minimum network latency = 24
Average network latency = 24
Maximum network latency = 24
Slowest packet = 0
Minimum flit latency = 23
Average flit latency = 26.875
Maximum flit latency = 30
Slowest flit = 6
Minimum fragmentation = 0
Average fragmentation = 0
Maximum fragmentation = 0
Minimum injected packet rate = 0 (at node 1)
Average injected packet rate = 9.375e-07
Maximum injected packet rate = 2e-05 (at node 0)
Minimum accepted packet rate = 0 (at node 1)
Average accepted packet rate = 3.125e-07
Maximum accepted packet rate = 2e-05 (at node 0)
Minimum injected flit rate = 0 (at node 1)
Average injected flit rate = 3.4375e-06
Maximum injected flit rate = 0.0001 (at node 0)
Minimum accepted flit rate = 0 (at node 1)
Average accepted flit rate = 2.5e-06
Maximum accepted flit rate = 8e-05 (at node 61)
Total number of injected packets = 3
Total number of injected flits = 11
Average injected packet length = 3.66667
Total number of accepted packets = 1
Total number of accepted flits = 8
Average accepted packet length = 8
Total in-flight flits = 3 (0 measured)
===== Time: 100000 =====
Class 0:
Packets read from trace = 1156 of 100000000 (0%)
Future packets = 1
Waiting packets = 0
Stalled packets = 1150
Packets pending injection = 0
Packets in flight = 3
Minimum packet latency = 24
Average packet latency = 23394
Maximum packet latency = 46764
Minimum network latency = 24
Average network latency = 23394
Maximum network latency = 46764
Slowest packet = 2
Minimum flit latency = 23
Average flit latency = 3922.08
Maximum flit latency = 46757
Slowest flit = 10
Minimum fragmentation = 0
Average fragmentation = 23365
Maximum fragmentation = 46730
Minimum injected packet rate = 0 (at node 3)
Average injected packet rate = 7.8125e-07
Maximum injected packet rate = 2e-05 (at node 55)
Minimum accepted packet rate = 0 (at node 1)
Average accepted packet rate = 3.125e-07
Maximum accepted packet rate = 1e-05 (at node 0)
Minimum injected flit rate = 0 (at node 3)
Average injected flit rate = 3.125e-06
Maximum injected flit rate = 0.0001 (at node 55)
Minimum accepted flit rate = 0 (at node 1)
Average accepted flit rate = 1.875e-06
Maximum accepted flit rate = 8e-05 (at node 61)
Total number of injected packets = 5
Total number of injected flits = 20
Average injected packet length = 4
Total number of accepted packets = 2
Total number of accepted flits = 12
Average accepted packet length = 6
Total in-flight flits = 9 (0 measured)
===== Time: 150000 =====
Class 0:
Packets read from trace = 1760 of 100000000 (0%)
Future packets = 1
Waiting packets = 0
Stalled packets = 1753
Packets pending injection = 0
Packets in flight = 3
Minimum packet latency = 24
Average packet latency = 22964
Maximum packet latency = 46764
Minimum network latency = 24
Average network latency = 22962.7
Maximum network latency = 46764
Slowest packet = 2
Minimum flit latency = 23
Average flit latency = 5077.28
Maximum flit latency = 46757
Slowest flit = 10
Minimum fragmentation = 0
Average fragmentation = 22931.7
Maximum fragmentation = 46730
Minimum injected packet rate = 0 (at node 3)
Average injected packet rate = 6.25e-07
Maximum injected packet rate = 2e-05 (at node 55)
Minimum accepted packet rate = 0 (at node 1)
Average accepted packet rate = 3.125e-07
Maximum accepted packet rate = 1.33333e-05 (at node 61)
Minimum injected flit rate = 0 (at node 3)
Average injected flit rate = 2.60417e-06
Maximum injected flit rate = 0.0001 (at node 55)
Minimum accepted flit rate = 0 (at node 1)
Average accepted flit rate = 1.875e-06
Maximum accepted flit rate = 9.33333e-05 (at node 61)
Total number of injected packets = 6
Total number of injected flits = 25
Average injected packet length = 4.16667
Total number of accepted packets = 3
Total number of accepted flits = 18
Average accepted packet length = 6
Total in-flight flits = 8 (0 measured)
Warmup ends after 150000 cycles.
Beginning measurements...
===== Time: 200000 =====
Class 0:
Packets read from trace = 2467 of 100000000 (0%)
Future packets = 1
Waiting packets = 0
Stalled packets = 2454
Packets pending injection = 0
Packets in flight = 4
Minimum packet latency = 635
Average packet latency = 11418.5
Maximum packet latency = 27434
Minimum network latency = 632
Average network latency = 11417
Maximum network latency = 27434
Slowest packet = 7
Minimum flit latency = 29
Average flit latency = 5194.76
Maximum flit latency = 65553
Slowest flit = 25
Minimum fragmentation = 596
Average fragmentation = 11372.8
Maximum fragmentation = 27365
Minimum injected packet rate = 0 (at node 0)
Average injected packet rate = 1.875e-06
Maximum injected packet rate = 6e-05 (at node 55)
Minimum accepted packet rate = 0 (at node 0)
Average accepted packet rate = 1.5625e-06
Maximum accepted packet rate = 8e-05 (at node 61)
Minimum injected flit rate = 0 (at node 0)
Average injected flit rate = 9.375e-06
Maximum injected flit rate = 0.0003 (at node 55)
Minimum accepted flit rate = 0 (at node 0)
Average accepted flit rate = 7.8125e-06
Maximum accepted flit rate = 0.00032 (at node 61)
Total number of injected packets = 6
Total number of injected flits = 30
Average injected packet length = 5
Total number of accepted packets = 5
Total number of accepted flits = 25
Average accepted packet length = 5
Total in-flight flits = 13 (6 measured)
===== Time: 250000 =====
Class 0:
Packets read from trace = 3286 of 100000000 (0%)
Future packets = 1
Waiting packets = 0
Stalled packets = 3268
Packets pending injection = 1
Packets in flight = 5
Minimum packet latency = 635
Average packet latency = 12782.7
Maximum packet latency = 27434
Minimum network latency = 632
Average network latency = 12781
Maximum network latency = 27434
Slowest packet = 7
Minimum flit latency = 29
Average flit latency = 4598.72
Maximum flit latency = 65553
Slowest flit = 25
Minimum fragmentation = 596
Average fragmentation = 12740.3
Maximum fragmentation = 27365
Minimum injected packet rate = 0 (at node 0)
Average injected packet rate = 1.5625e-06
Maximum injected packet rate = 7e-05 (at node 55)
Minimum accepted packet rate = 0 (at node 0)
Average accepted packet rate = 1.25e-06
Maximum accepted packet rate = 7e-05 (at node 61)
Minimum injected flit rate = 0 (at node 0)
Average injected flit rate = 7.8125e-06
Maximum injected flit rate = 0.00035 (at node 55)
Minimum accepted flit rate = 0 (at node 0)
Average accepted flit rate = 6.71875e-06
Maximum accepted flit rate = 0.00034 (at node 61)
Total number of injected packets = 10
Total number of injected flits = 50
Average injected packet length = 5
Total number of accepted packets = 8
Total number of accepted flits = 43
Average accepted packet length = 5.375
Total in-flight flits = 15 (8 measured)
===== Time: 300000 =====
Class 0:
Packets read from trace = 4380 of 100000000 (0%)
Future packets = 1
Waiting packets = 0
Stalled packets = 4267
Packets pending injection = 32
Packets in flight = 16
Minimum packet latency = 280
Average packet latency = 2604.03
Maximum packet latency = 27434
Minimum network latency = 276
Average network latency = 2601.17
Maximum network latency = 27434
Slowest packet = 7
Minimum flit latency = 29
Average flit latency = 948.373
Maximum flit latency = 65553
Slowest flit = 25
Minimum fragmentation = 227
Average fragmentation = 2529.6
Maximum fragmentation = 27365
Minimum injected packet rate = 0 (at node 0)
Average injected packet rate = 7.39583e-06
Maximum injected packet rate = 0.0002 (at node 10)
Minimum accepted packet rate = 0 (at node 0)
Average accepted packet rate = 6.35417e-06
Maximum accepted packet rate = 0.0002 (at node 16)
Minimum injected flit rate = 0 (at node 0)
Average injected flit rate = 3.6875e-05
Maximum injected flit rate = 0.001 (at node 10)
Minimum accepted flit rate = 0 (at node 0)
Average accepted flit rate = 3.29167e-05
Maximum accepted flit rate = 0.00102667 (at node 16)
Total number of injected packets = 71
Total number of injected flits = 354
Average injected packet length = 4.98592
Total number of accepted packets = 61
Total number of accepted flits = 316
Average accepted packet length = 5.18033
Total in-flight flits = 62 (55 measured)
===== Time: 350000 =====
Class 0:
Packets read from trace = 4795 of 100000000 (0%)
Future packets = 1
Waiting packets = 0
Stalled packets = 4672
Packets pending injection = 35
Packets in flight = 22
Minimum packet latency = 280
Average packet latency = 2986.41
Maximum packet latency = 27434
Minimum network latency = 276
Average network latency = 2983.54
Maximum network latency = 27434
Slowest packet = 7
Minimum flit latency = 29
Average flit latency = 1428.75
Maximum flit latency = 65553
Slowest flit = 25
Minimum fragmentation = 227
Average fragmentation = 2904.48
Maximum fragmentation = 27365
Minimum injected packet rate = 0 (at node 0)
Average injected packet rate = 6.01562e-06
Maximum injected packet rate = 0.00015 (at node 10)
Minimum accepted packet rate = 0 (at node 0)
Average accepted packet rate = 4.84375e-06
Maximum accepted packet rate = 0.000155 (at node 16)
Minimum injected flit rate = 0 (at node 0)
Average injected flit rate = 2.99219e-05
Maximum injected flit rate = 0.00075 (at node 10)
Minimum accepted flit rate = 0 (at node 0)
Average accepted flit rate = 2.51563e-05
Maximum accepted flit rate = 0.000795 (at node 16)
Total number of injected packets = 77
Total number of injected flits = 383
Average injected packet length = 4.97403
Total number of accepted packets = 62
Total number of accepted flits = 322
Average accepted packet length = 5.19355
Total in-flight flits = 91 (84 measured)
===== Time: 400000 =====
Class 0:
Packets read from trace = 5371 of 100000000 (0%)
Future packets = 1
Waiting packets = 0
Stalled packets = 5239
Packets pending injection = 43
Packets in flight = 23
Minimum packet latency = 280
Average packet latency = 2986.41
Maximum packet latency = 27434
Minimum network latency = 276
Average network latency = 2983.54
Maximum network latency = 27434
Slowest packet = 7
Minimum flit latency = 29
Average flit latency = 1428.75
Maximum flit latency = 65553
Slowest flit = 25
Minimum fragmentation = 227
Average fragmentation = 2904.48
Maximum fragmentation = 27365
Minimum injected packet rate = 0 (at node 0)
Average injected packet rate = 4.875e-06
Maximum injected packet rate = 0.00012 (at node 10)
Minimum accepted packet rate = 0 (at node 0)
Average accepted packet rate = 3.875e-06
Maximum accepted packet rate = 0.000124 (at node 16)
Minimum injected flit rate = 0 (at node 0)
Average injected flit rate = 2.425e-05
Maximum injected flit rate = 0.0006 (at node 10)
Minimum accepted flit rate = 0 (at node 0)
Average accepted flit rate = 2.0125e-05
Maximum accepted flit rate = 0.000636 (at node 16)
Total number of injected packets = 78
Total number of injected flits = 388
Average injected packet length = 4.97436
Total number of accepted packets = 62
Total number of accepted flits = 322
Average accepted packet length = 5.19355
Total in-flight flits = 96 (89 measured)
===== Time: 450000 =====
Class 0:
Packets read from trace = 6038 of 100000000 (0%)
Future packets = 1
Waiting packets = 0
Stalled packets = 5897
Packets pending injection = 52
Packets in flight = 23
Minimum packet latency = 280
Average packet latency = 2986.41
Maximum packet latency = 27434
Minimum network latency = 276
Average network latency = 2983.54
Maximum network latency = 27434
Slowest packet = 7
Minimum flit latency = 29
Average flit latency = 1428.75
Maximum flit latency = 65553
Slowest flit = 25
Minimum fragmentation = 227
Average fragmentation = 2904.48
Maximum fragmentation = 27365
Minimum injected packet rate = 0 (at node 0)
Average injected packet rate = 4.0625e-06
Maximum injected packet rate = 0.0001 (at node 10)
Minimum accepted packet rate = 0 (at node 0)
Average accepted packet rate = 3.22917e-06
Maximum accepted packet rate = 0.000103333 (at node 16)
Minimum injected flit rate = 0 (at node 0)
Average injected flit rate = 2.02083e-05
Maximum injected flit rate = 0.0005 (at node 10)
Minimum accepted flit rate = 0 (at node 0)
Average accepted flit rate = 1.67708e-05
Maximum accepted flit rate = 0.00053 (at node 16)
Total number of injected packets = 78
Total number of injected flits = 388
Average injected packet length = 4.97436
Total number of accepted packets = 62
Total number of accepted flits = 322
Average accepted packet length = 5.19355
Total in-flight flits = 96 (89 measured)
===== Time: 500000 =====
Class 0:
Packets read from trace = 6890 of 100000000 (0%)
Future packets = 1
Waiting packets = 0
Stalled packets = 6736
Packets pending injection = 65
Packets in flight = 23
Minimum packet latency = 280
Average packet latency = 2986.41
Maximum packet latency = 27434
Minimum network latency = 276
Average network latency = 2983.54
Maximum network latency = 27434
Slowest packet = 7
Minimum flit latency = 29
Average flit latency = 1428.75
Maximum flit latency = 65553
Slowest flit = 25
Minimum fragmentation = 227
Average fragmentation = 2904.48
Maximum fragmentation = 27365
Minimum injected packet rate = 0 (at node 0)
Average injected packet rate = 3.48214e-06
Maximum injected packet rate = 8.57143e-05 (at node 10)
Minimum accepted packet rate = 0 (at node 0)
Average accepted packet rate = 2.76786e-06
Maximum accepted packet rate = 8.85714e-05 (at node 16)
Minimum injected flit rate = 0 (at node 0)
Average injected flit rate = 1.73214e-05
Maximum injected flit rate = 0.000428571 (at node 10)
Minimum accepted flit rate = 0 (at node 0)
Average accepted flit rate = 1.4375e-05
Maximum accepted flit rate = 0.000454286 (at node 16)
Total number of injected packets = 78
Total number of injected flits = 388
Average injected packet length = 4.97436
Total number of accepted packets = 62
Total number of accepted flits = 322
Average accepted packet length = 5.19355
Total in-flight flits = 96 (89 measured)
===== Time: 550000 =====
Class 0:
Packets read from trace = 7379 of 100000000 (0%)
Future packets = 1
Waiting packets = 0
Stalled packets = 7224
Packets pending injection = 66
Packets in flight = 23
Minimum packet latency = 280
Average packet latency = 2986.41
Maximum packet latency = 27434
Minimum network latency = 276
Average network latency = 2983.54
Maximum network latency = 27434
Slowest packet = 7
Minimum flit latency = 29
Average flit latency = 1428.75
Maximum flit latency = 65553
Slowest flit = 25
Minimum fragmentation = 227
Average fragmentation = 2904.48
Maximum fragmentation = 27365
Minimum injected packet rate = 0 (at node 0)
Average injected packet rate = 3.04687e-06
Maximum injected packet rate = 7.5e-05 (at node 10)
Minimum accepted packet rate = 0 (at node 0)
Average accepted packet rate = 2.42187e-06
Maximum accepted packet rate = 7.75e-05 (at node 16)
Minimum injected flit rate = 0 (at node 0)
Average injected flit rate = 1.51563e-05
Maximum injected flit rate = 0.000375 (at node 10)
Minimum accepted flit rate = 0 (at node 0)
Average accepted flit rate = 1.25781e-05
Maximum accepted flit rate = 0.0003975 (at node 16)
Total number of injected packets = 78
Total number of injected flits = 388
Average injected packet length = 4.97436
Total number of accepted packets = 62
Total number of accepted flits = 322
Average accepted packet length = 5.19355
Total in-flight flits = 96 (89 measured)
===== Time: 600000 =====
Class 0:
Packets read from trace = 10847 of 100000000 (0%)
Future packets = 1
Waiting packets = 0
Stalled packets = 10526
Packets pending injection = 85
Packets in flight = 73
Minimum packet latency = 9
Average packet latency = 16976.3
Maximum packet latency = 388614
Minimum network latency = 9
Average network latency = 16974.6
Maximum network latency = 388614
Slowest packet = 10
Minimum flit latency = 8
Average flit latency = 23703
Maximum flit latency = 580854
Slowest flit = 4
Minimum fragmentation = 0
Average fragmentation = 5451.07
Maximum fragmentation = 386783
Minimum injected packet rate = 2.22222e-06 (at node 3)
Average injected packet rate = 7.70833e-06
Maximum injected packet rate = 7.11111e-05 (at node 10)
Minimum accepted packet rate = 0 (at node 1)
Average accepted packet rate = 5.52083e-06
Maximum accepted packet rate = 8.44444e-05 (at node 16)
Minimum injected flit rate = 2.22222e-06 (at node 3)
Average injected flit rate = 2.61458e-05
Maximum injected flit rate = 0.000353333 (at node 10)
Minimum accepted flit rate = 0 (at node 1)
Average accepted flit rate = 2.05208e-05
Maximum accepted flit rate = 0.000422222 (at node 16)
Total number of injected packets = 222
Total number of injected flits = 753
Average injected packet length = 3.39189
Total number of accepted packets = 159
Total number of accepted flits = 591
Average accepted packet length = 3.71698
Total in-flight flits = 206 (206 measured)
===== Time: 650000 =====
Class 0:
Packets read from trace = 13017 of 100000000 (0%)
Future packets = 1
Waiting packets = 0
Stalled packets = 12688
Packets pending injection = 93
Packets in flight = 73
Minimum packet latency = 9
Average packet latency = 16976.3
Maximum packet latency = 388614
Minimum network latency = 9
Average network latency = 16974.6
Maximum network latency = 388614
Slowest packet = 10
Minimum flit latency = 8
Average flit latency = 23703
Maximum flit latency = 580854
Slowest flit = 4
Minimum fragmentation = 0
Average fragmentation = 5451.07
Maximum fragmentation = 386783
Minimum injected packet rate = 2e-06 (at node 3)
Average injected packet rate = 6.9375e-06
Maximum injected packet rate = 6.4e-05 (at node 10)
Minimum accepted packet rate = 0 (at node 1)
Average accepted packet rate = 4.96875e-06
Maximum accepted packet rate = 7.6e-05 (at node 16)
Minimum injected flit rate = 2e-06 (at node 3)
Average injected flit rate = 2.35312e-05
Maximum injected flit rate = 0.000318 (at node 10)
Minimum accepted flit rate = 0 (at node 1)
Average accepted flit rate = 1.84688e-05
Maximum accepted flit rate = 0.00038 (at node 16)
Total number of injected packets = 222
Total number of injected flits = 753
Average injected packet length = 3.39189
Total number of accepted packets = 159
Total number of accepted flits = 591
Average accepted packet length = 3.71698
Total in-flight flits = 206 (206 measured)
Completed measurements after 650000 cycles.
Draining remaining packets ...
Class 0:
Remaining flits: 90 265 350 370 371 372 373 374 375 376 [...] (206 flits)
Measured flits: 90 265 350 370 371 372 373 374 375 376 [...] (206 flits)
Class 0:
Remaining flits: 90 350 370 371 372 373 374 375 376 377 [...] (204 flits)
Measured flits: 90 350 370 371 372 373 374 375 376 377 [...] (204 flits)
Class 0:
Remaining flits: 350 370 371 372 373 374 375 376 377 378 [...] (197 flits)
Measured flits: 350 370 371 372 373 374 375 376 377 378 [...] (197 flits)
Class 0:
Remaining flits: 350 370 371 372 373 374 375 376 377 378 [...] (191 flits)
Measured flits: 350 370 371 372 373 374 375 376 377 378 [...] (191 flits)
Class 0:
Remaining flits: 350 370 371 372 373 374 375 376 377 378 [...] (186 flits)
Measured flits: 350 370 371 372 373 374 375 376 377 378 [...] (186 flits)
Class 0:
Remaining flits: 350 370 371 372 373 374 375 376 377 378 [...] (184 flits)
Measured flits: 350 370 371 372 373 374 375 376 377 378 [...] (184 flits)
Class 0:
Remaining flits: 350 370 371 372 373 374 375 376 377 378 [...] (183 flits)
Measured flits: 350 370 371 372 373 374 375 376 377 378 [...] (183 flits)
Class 0:
Remaining flits: 350 370 371 372 373 374 375 376 377 378 [...] (182 flits)
Measured flits: 350 370 371 372 373 374 375 376 377 378 [...] (182 flits)
Class 0:
Remaining flits: 350 370 371 372 373 374 375 376 377 378 [...] (182 flits)
Measured flits: 350 370 371 372 373 374 375 376 377 378 [...] (182 flits)
Class 0:
Remaining flits: 350 370 371 372 373 374 375 376 377 378 [...] (178 flits)
Measured flits: 350 370 371 372 373 374 375 376 377 378 [...] (178 flits)
Class 0:
Remaining flits: 350 370 371 372 373 374 375 376 377 378 [...] (177 flits)
Measured flits: 350 370 371 372 373 374 375 376 377 378 [...] (177 flits)
Class 0:
Remaining flits: 350 370 371 372 373 374 375 376 377 378 [...] (177 flits)
Measured flits: 350 370 371 372 373 374 375 376 377 378 [...] (177 flits)
Class 0:
Remaining flits: 350 370 371 372 373 374 375 376 377 378 [...] (177 flits)
Measured flits: 350 370 371 372 373 374 375 376 377 378 [...] (177 flits)
Class 0:
Remaining flits: 350 370 371 372 373 374 375 376 377 378 [...] (177 flits)
Measured flits: 350 370 371 372 373 374 375 376 377 378 [...] (177 flits)
Class 0:
Remaining flits: 350 370 371 372 373 374 375 376 377 378 [...] (177 flits)
Measured flits: 350 370 371 372 373 374 375 376 377 378 [...] (177 flits)
Class 0:
Remaining flits: 350 370 371 372 373 374 375 376 377 378 [...] (177 flits)
Measured flits: 350 370 371 372 373 374 375 376 377 378 [...] (177 flits)
Class 0:
Remaining flits: 350 370 371 372 373 374 375 376 377 378 [...] (177 flits)
Measured flits: 350 370 371 372 373 374 375 376 377 378 [...] (177 flits)
Class 0:
Remaining flits: 350 370 371 372 373 374 375 376 377 378 [...] (177 flits)
Measured flits: 350 370 371 372 373 374 375 376 377 378 [...] (177 flits)
Class 0:
Remaining flits: 350 370 371 372 373 374 375 376 377 378 [...] (177 flits)
Measured flits: 350 370 371 372 373 374 375 376 377 378 [...] (177 flits)
Class 0:
Remaining flits: 350 370 371 372 373 374 375 376 377 378 [...] (177 flits)
Measured flits: 350 370 371 372 373 374 375 376 377 378 [...] (177 flits)
Class 0:
Remaining flits: 350 370 371 372 373 374 375 376 377 378 [...] (177 flits)
Measured flits: 350 370 371 372 373 374 375 376 377 378 [...] (177 flits)
Class 0:
Remaining flits: 350 370 371 372 373 374 375 376 377 378 [...] (177 flits)
Measured flits: 350 370 371 372 373 374 375 376 377 378 [...] (177 flits)
Class 0:
Remaining flits: 350 370 371 372 373 374 375 376 377 378 [...] (177 flits)
Measured flits: 350 370 371 372 373 374 375 376 377 378 [...] (177 flits)
Class 0:
Remaining flits: 350 370 371 372 373 374 375 376 377 378 [...] (177 flits)
Measured flits: 350 370 371 372 373 374 375 376 377 378 [...] (177 flits)
Class 0:
Remaining flits: 350 370 371 372 373 374 375 376 377 378 [...] (177 flits)
Measured flits: 350 370 371 372 373 374 375 376 377 378 [...] (177 flits)
Class 0:
Remaining flits: 350 370 371 372 373 374 375 376 377 378 [...] (177 flits)
Measured flits: 350 370 371 372 373 374 375 376 377 378 [...] (177 flits)
Class 0:
Remaining flits: 350 370 371 372 373 374 375 376 377 378 [...] (177 flits)
Measured flits: 350 370 371 372 373 374 375 376 377 378 [...] (177 flits)
Class 0:
Remaining flits: 350 370 371 372 373 374 375 376 377 378 [...] (177 flits)
Measured flits: 350 370 371 372 373 374 375 376 377 378 [...] (177 flits)
Class 0:
Remaining flits: 350 370 371 372 373 374 375 376 377 378 [...] (177 flits)
Measured flits: 350 370 371 372 373 374 375 376 377 378 [...] (177 flits)
Class 0:
Remaining flits: 350 370 371 372 373 374 375 376 377 378 [...] (177 flits)
Measured flits: 350 370 371 372 373 374 375 376 377 378 [...] (177 flits)
Class 0:
Remaining flits: 350 370 371 372 373 374 375 376 377 378 [...] (177 flits)
Measured flits: 350 370 371 372 373 374 375 376 377 378 [...] (177 flits)
Class 0:
Remaining flits: 350 370 371 372 373 374 375 376 377 378 [...] (177 flits)
Measured flits: 350 370 371 372 373 374 375 376 377 378 [...] (177 flits)
Class 0:
Remaining flits: 350 370 371 372 373 374 375 376 377 378 [...] (177 flits)
Measured flits: 350 370 371 372 373 374 375 376 377 378 [...] (177 flits)
Class 0:
Remaining flits: 350 370 371 372 373 374 375 376 377 378 [...] (177 flits)
Measured flits: 350 370 371 372 373 374 375 376 377 378 [...] (177 flits)
Class 0:
Remaining flits: 350 370 371 372 373 374 375 376 377 378 [...] (177 flits)
Measured flits: 350 370 371 372 373 374 375 376 377 378 [...] (177 flits)
Class 0:
Remaining flits: 350 370 371 372 373 374 375 376 377 378 [...] (177 flits)
Measured flits: 350 370 371 372 373 374 375 376 377 378 [...] (177 flits)
Class 0:
Remaining flits: 350 370 371 372 373 374 375 376 377 378 [...] (177 flits)
Measured flits: 350 370 371 372 373 374 375 376 377 378 [...] (177 flits)
Class 0:
Remaining flits: 350 370 371 372 373 374 375 376 377 378 [...] (177 flits)
Measured flits: 350 370 371 372 373 374 375 376 377 378 [...] (177 flits)
Class 0:
Remaining flits: 350 370 371 372 373 374 375 376 377 378 [...] (177 flits)
Measured flits: 350 370 371 372 373 374 375 376 377 378 [...] (177 flits)
Class 0:
Remaining flits: 350 370 371 372 373 374 375 376 377 378 [...] (177 flits)
Measured flits: 350 370 371 372 373 374 375 376 377 378 [...] (177 flits)
Class 0:
Remaining flits: 350 370 371 372 373 374 375 376 377 378 [...] (177 flits)
Measured flits: 350 370 371 372 373 374 375 376 377 378 [...] (177 flits)
Class 0:
Remaining flits: 350 370 371 372 373 374 375 376 377 378 [...] (177 flits)
Measured flits: 350 370 371 372 373 374 375 376 377 378 [...] (177 flits)
Class 0:
Remaining flits: 350 370 371 372 373 374 375 376 377 378 [...] (177 flits)
Measured flits: 350 370 371 372 373 374 375 376 377 378 [...] (177 flits)
Class 0:
Remaining flits: 350 370 371 372 373 374 375 376 377 378 [...] (177 flits)
Measured flits: 350 370 371 372 373 374 375 376 377 378 [...] (177 flits)
Class 0:
Remaining flits: 350 370 371 372 373 374 375 376 377 378 [...] (177 flits)
Measured flits: 350 370 371 372 373 374 375 376 377 378 [...] (177 flits)
Class 0:
Remaining flits: 350 370 371 372 373 374 375 376 377 378 [...] (177 flits)
Measured flits: 350 370 371 372 373 374 375 376 377 378 [...] (177 flits)
Class 0:
Remaining flits: 350 370 371 372 373 374 375 376 377 378 [...] (177 flits)
Measured flits: 350 370 371 372 373 374 375 376 377 378 [...] (177 flits)
Class 0:
Remaining flits: 350 370 371 372 373 374 375 376 377 378 [...] (177 flits)
Measured flits: 350 370 371 372 373 374 375 376 377 378 [...] (177 flits)
Class 0:
Remaining flits: 350 370 371 372 373 374 375 376 377 378 [...] (177 flits)
Measured flits: 350 370 371 372 373 374 375 376 377 378 [...] (177 flits)
Class 0:
Remaining flits: 350 370 371 372 373 374 375 376 377 378 [...] (177 flits)
Measured flits: 350 370 371 372 373 374 375 376 377 378 [...] (177 flits)
Class 0:
Remaining flits: 350 370 371 372 373 374 375 376 377 378 [...] (177 flits)
Measured flits: 350 370 371 372 373 374 375 376 377 378 [...] (177 flits)
Class 0:
Remaining flits: 350 370 371 372 373 374 375 376 377 378 [...] (177 flits)
Measured flits: 350 370 371 372 373 374 375 376 377 378 [...] (177 flits)
Class 0:
Remaining flits: 350 370 371 372 373 374 375 376 377 378 [...] (177 flits)
Measured flits: 350 370 371 372 373 374 375 376 377 378 [...] (177 flits)
Class 0:
Remaining flits: 350 370 371 372 373 374 375 376 377 378 [...] (177 flits)
Measured flits: 350 370 371 372 373 374 375 376 377 378 [...] (177 flits)
Class 0:
Remaining flits: 350 370 371 372 373 374 375 376 377 378 [...] (177 flits)
Measured flits: 350 370 371 372 373 374 375 376 377 378 [...] (177 flits)
Class 0:
Remaining flits: 350 370 371 372 373 374 375 376 377 378 [...] (177 flits)
Measured flits: 350 370 371 372 373 374 375 376 377 378 [...] (177 flits)
Class 0:
Remaining flits: 350 370 371 372 373 374 375 376 377 378 [...] (177 flits)
Measured flits: 350 370 371 372 373 374 375 376 377 378 [...] (177 flits)
Class 0:
Remaining flits: 350 370 371 372 373 374 375 376 377 378 [...] (177 flits)
Measured flits: 350 370 371 372 373 374 375 376 377 378 [...] (177 flits)
Class 0:
Remaining flits: 350 370 371 372 373 374 375 376 377 378 [...] (177 flits)
Measured flits: 350 370 371 372 373 374 375 376 377 378 [...] (177 flits)
Class 0:
Remaining flits: 350 370 371 372 373 374 375 376 377 378 [...] (177 flits)
Measured flits: 350 370 371 372 373 374 375 376 377 378 [...] (177 flits)
Class 0:
Remaining flits: 350 370 371 372 373 374 375 376 377 378 [...] (177 flits)
Measured flits: 350 370 371 372 373 374 375 376 377 378 [...] (177 flits)
Class 0:
Remaining flits: 350 370 371 372 373 374 375 376 377 378 [...] (177 flits)
Measured flits: 350 370 371 372 373 374 375 376 377 378 [...] (177 flits)
Class 0:
Remaining flits: 350 370 371 372 373 374 375 376 377 378 [...] (177 flits)
Measured flits: 350 370 371 372 373 374 375 376 377 378 [...] (177 flits)
Class 0:
Remaining flits: 350 370 371 372 373 374 375 376 377 378 [...] (177 flits)
Measured flits: 350 370 371 372 373 374 375 376 377 378 [...] (177 flits)
Class 0:
Remaining flits: 350 370 371 372 373 374 375 376 377 378 [...] (177 flits)
Measured flits: 350 370 371 372 373 374 375 376 377 378 [...] (177 flits)
Class 0:
Remaining flits: 350 370 371 372 373 374 375 376 377 378 [...] (177 flits)
Measured flits: 350 370 371 372 373 374 375 376 377 378 [...] (177 flits)
Class 0:
Remaining flits: 350 370 371 372 373 374 375 376 377 378 [...] (177 flits)
Measured flits: 350 370 371 372 373 374 375 376 377 378 [...] (177 flits)
Class 0:
Remaining flits: 350 370 371 372 373 374 375 376 377 378 [...] (177 flits)
Measured flits: 350 370 371 372 373 374 375 376 377 378 [...] (177 flits)
Class 0:
Remaining flits: 350 370 371 372 373 374 375 376 377 378 [...] (177 flits)
Measured flits: 350 370 371 372 373 374 375 376 377 378 [...] (177 flits)
Class 0:
Remaining flits: 350 370 371 372 373 374 375 376 377 378 [...] (177 flits)
Measured flits: 350 370 371 372 373 374 375 376 377 378 [...] (177 flits)
Class 0:
Remaining flits: 350 370 371 372 373 374 375 376 377 378 [...] (177 flits)
Measured flits: 350 370 371 372 373 374 375 376 377 378 [...] (177 flits)
Class 0:
Remaining flits: 350 370 371 372 373 374 375 376 377 378 [...] (177 flits)
Measured flits: 350 370 371 372 373 374 375 376 377 378 [...] (177 flits)
Class 0:
Remaining flits: 350 370 371 372 373 374 375 376 377 378 [...] (177 flits)
Measured flits: 350 370 371 372 373 374 375 376 377 378 [...] (177 flits)
Class 0:
Remaining flits: 350 370 371 372 373 374 375 376 377 378 [...] (177 flits)
Measured flits: 350 370 371 372 373 374 375 376 377 378 [...] (177 flits)
Class 0:
Remaining flits: 350 370 371 372 373 374 375 376 377 378 [...] (177 flits)
Measured flits: 350 370 371 372 373 374 375 376 377 378 [...] (177 flits)
Class 0:
Remaining flits: 350 370 371 372 373 374 375 376 377 378 [...] (177 flits)
Measured flits: 350 370 371 372 373 374 375 376 377 378 [...] (177 flits)
Class 0:
Remaining flits: 350 370 371 372 373 374 375 376 377 378 [...] (177 flits)
Measured flits: 350 370 371 372 373 374 375 376 377 378 [...] (177 flits)
Class 0:
Remaining flits: 350 370 371 372 373 374 375 376 377 378 [...] (177 flits)
Measured flits: 350 370 371 372 373 374 375 376 377 378 [...] (177 flits)
Class 0:
Remaining flits: 350 370 371 372 373 374 375 376 377 378 [...] (177 flits)
Measured flits: 350 370 371 372 373 374 375 376 377 378 [...] (177 flits)
Class 0:
Remaining flits: 350 370 371 372 373 374 375 376 377 378 [...] (177 flits)
Measured flits: 350 370 371 372 373 374 375 376 377 378 [...] (177 flits)
Class 0:
Remaining flits: 350 370 371 372 373 374 375 376 377 378 [...] (177 flits)
Measured flits: 350 370 371 372 373 374 375 376 377 378 [...] (177 flits)
Class 0:
Remaining flits: 350 370 371 372 373 374 375 376 377 378 [...] (177 flits)
Measured flits: 350 370 371 372 373 374 375 376 377 378 [...] (177 flits)
Class 0:
Remaining flits: 350 370 371 372 373 374 375 376 377 378 [...] (177 flits)
Measured flits: 350 370 371 372 373 374 375 376 377 378 [...] (177 flits)
Class 0:
Remaining flits: 350 370 371 372 373 374 375 376 377 378 [...] (177 flits)
Measured flits: 350 370 371 372 373 374 375 376 377 378 [...] (177 flits)
Class 0:
Remaining flits: 350 370 371 372 373 374 375 376 377 378 [...] (177 flits)
Measured flits: 350 370 371 372 373 374 375 376 377 378 [...] (177 flits)
Class 0:
Remaining flits: 350 370 371 372 373 374 375 376 377 378 [...] (177 flits)
Measured flits: 350 370 371 372 373 374 375 376 377 378 [...] (177 flits)
Class 0:
Remaining flits: 350 370 371 372 373 374 375 376 377 378 [...] (177 flits)
Measured flits: 350 370 371 372 373 374 375 376 377 378 [...] (177 flits)
Class 0:
Remaining flits: 350 370 371 372 373 374 375 376 377 378 [...] (177 flits)
Measured flits: 350 370 371 372 373 374 375 376 377 378 [...] (177 flits)
Class 0:
Remaining flits: 350 370 371 372 373 374 375 376 377 378 [...] (177 flits)
Measured flits: 350 370 371 372 373 374 375 376 377 378 [...] (177 flits)
Class 0:
Remaining flits: 350 370 371 372 373 374 375 376 377 378 [...] (177 flits)
Measured flits: 350 370 371 372 373 374 375 376 377 378 [...] (177 flits)
Class 0:
Remaining flits: 350 370 371 372 373 374 375 376 377 378 [...] (177 flits)
Measured flits: 350 370 371 372 373 374 375 376 377 378 [...] (177 flits)
Class 0:
Remaining flits: 350 370 371 372 373 374 375 376 377 378 [...] (177 flits)
Measured flits: 350 370 371 372 373 374 375 376 377 378 [...] (177 flits)
Class 0:
Remaining flits: 350 370 371 372 373 374 375 376 377 378 [...] (177 flits)
Measured flits: 350 370 371 372 373 374 375 376 377 378 [...] (177 flits)
Class 0:
Remaining flits: 350 370 371 372 373 374 375 376 377 378 [...] (177 flits)
Measured flits: 350 370 371 372 373 374 375 376 377 378 [...] (177 flits)
Class 0:
Remaining flits: 350 370 371 372 373 374 375 376 377 378 [...] (177 flits)
Measured flits: 350 370 371 372 373 374 375 376 377 378 [...] (177 flits)
Class 0:
Remaining flits: 350 370 371 372 373 374 375 376 377 378 [...] (177 flits)
Measured flits: 350 370 371 372 373 374 375 376 377 378 [...] (177 flits)
Class 0:
Remaining flits: 350 370 371 372 373 374 375 376 377 378 [...] (177 flits)
Measured flits: 350 370 371 372 373 374 375 376 377 378 [...] (177 flits)
Class 0:
Remaining flits: 350 370 371 372 373 374 375 376 377 378 [...] (177 flits)
Measured flits: 350 370 371 372 373 374 375 376 377 378 [...] (177 flits)
Class 0:
Remaining flits: 350 370 371 372 373 374 375 376 377 378 [...] (177 flits)
Measured flits: 350 370 371 372 373 374 375 376 377 378 [...] (177 flits)
Class 0:
Remaining flits: 350 370 371 372 373 374 375 376 377 378 [...] (177 flits)
Measured flits: 350 370 371 372 373 374 375 376 377 378 [...] (177 flits)
Class 0:
Remaining flits: 350 370 371 372 373 374 375 376 377 378 [...] (177 flits)
Measured flits: 350 370 371 372 373 374 375 376 377 378 [...] (177 flits)
Time taken is 651000 cycles
====== Traffic class 0 ======

Total number of flits generated = 815, changed lanes = 0
Overall minimum packet latency = 9 (1 samples)
Overall average packet latency = 28070.4 (1 samples)
Overall maximum packet latency = 393089 (1 samples)
Overall minimum network latency = 9 (1 samples)
Overall average network latency = 20542.6 (1 samples)
Overall maximum network latency = 388614 (1 samples)
Overall minimum flit latency = 8 (1 samples)
Overall average flit latency = 25452.1 (1 samples)
Overall maximum flit latency = 580854 (1 samples)
Overall minimum fragmentation = 0 (1 samples)
Overall average fragmentation = 6137.16 (1 samples)
Overall maximum fragmentation = 386783 (1 samples)
Overall minimum injected packet rate = 2e-06 (1 samples)
Overall average injected packet rate = 6.9375e-06 (1 samples)
Overall maximum injected packet rate = 6.4e-05 (1 samples)
Overall minimum accepted packet rate = 0 (1 samples)
Overall average accepted packet rate = 4.96875e-06 (1 samples)
Overall maximum accepted packet rate = 7.6e-05 (1 samples)
Overall minimum injected flit rate = 2e-06 (1 samples)
Overall average injected flit rate = 2.35312e-05 (1 samples)
Overall maximum injected flit rate = 0.000318 (1 samples)
Overall minimum accepted flit rate = 0 (1 samples)
Overall average accepted flit rate = 1.84688e-05 (1 samples)
Overall maximum accepted flit rate = 0.00038 (1 samples)
Overall average injected packet size = 3.39189 (1 samples)
Overall average accepted packet size = 3.71698 (1 samples)
Overall average hops = 5.01183 (1 samples)
Overall throughput of the network (flits/cycle) = 0.001276
Overall throughput of the network (packets/cycle) = 0.00035
Overall workload runtime = 500000 (1 samples)

The distribution of the source packets of size 1 is: 

Source [0] = 2
Source [1] = 0
Source [2] = 3
Source [3] = 1
Source [4] = 1
Source [5] = 1
Source [6] = 1
Source [7] = 1
Source [8] = 2
Source [9] = 2
Source [10] = 0
Source [11] = 0
Source [12] = 2
Source [13] = 1
Source [14] = 1
Source [15] = 1
Source [16] = 2
Source [17] = 2
Source [18] = 1
Source [19] = 2
Source [20] = 1
Source [21] = 1
Source [22] = 1
Source [23] = 1
Source [24] = 1
Source [25] = 2
Source [26] = 1
Source [27] = 2
Source [28] = 3
Source [29] = 1
Source [30] = 1
Source [31] = 2
Source [32] = 2
Source [33] = 2
Source [34] = 2
Source [35] = 1
Source [36] = 2
Source [37] = 2
Source [38] = 1
Source [39] = 3
Source [40] = 2
Source [41] = 2
Source [42] = 1
Source [43] = 1
Source [44] = 2
Source [45] = 1
Source [46] = 1
Source [47] = 3
Source [48] = 0
Source [49] = 0
Source [50] = 1
Source [51] = 1
Source [52] = 2
Source [53] = 1
Source [54] = 1
Source [55] = 0
Source [56] = 1
Source [57] = 2
Source [58] = 2
Source [59] = 1
Source [60] = 2
Source [61] = 1
Source [62] = 1
Source [63] = 3
The distribution of the source packets of size 5 is: 

Source [0] = 3
Source [1] = 4
Source [2] = 1
Source [3] = 0
Source [4] = 1
Source [5] = 0
Source [6] = 1
Source [7] = 0
Source [8] = 2
Source [9] = 0
Source [10] = 32
Source [11] = 23
Source [12] = 1
Source [13] = 0
Source [14] = 1
Source [15] = 0
Source [16] = 1
Source [17] = 0
Source [18] = 6
Source [19] = 2
Source [20] = 2
Source [21] = 0
Source [22] = 1
Source [23] = 0
Source [24] = 1
Source [25] = 1
Source [26] = 2
Source [27] = 0
Source [28] = 1
Source [29] = 0
Source [30] = 2
Source [31] = 0
Source [32] = 2
Source [33] = 2
Source [34] = 1
Source [35] = 0
Source [36] = 1
Source [37] = 0
Source [38] = 2
Source [39] = 0
Source [40] = 1
Source [41] = 0
Source [42] = 1
Source [43] = 0
Source [44] = 2
Source [45] = 0
Source [46] = 7
Source [47] = 0
Source [48] = 4
Source [49] = 4
Source [50] = 2
Source [51] = 1
Source [52] = 0
Source [53] = 0
Source [54] = 1
Source [55] = 17
Source [56] = 1
Source [57] = 0
Source [58] = 3
Source [59] = 0
Source [60] = 2
Source [61] = 0
Source [62] = 2
Source [63] = 1
The distribution of the dest packets of size 1 is: 

dest [0] = 4
dest [1] = 0
dest [2] = 2
dest [3] = 0
dest [4] = 1
dest [5] = 1
dest [6] = 1
dest [7] = 0
dest [8] = 3
dest [9] = 0
dest [10] = 1
dest [11] = 0
dest [12] = 1
dest [13] = 0
dest [14] = 1
dest [15] = 0
dest [16] = 1
dest [17] = 0
dest [18] = 2
dest [19] = 2
dest [20] = 2
dest [21] = 0
dest [22] = 2
dest [23] = 6
dest [24] = 2
dest [25] = 4
dest [26] = 2
dest [27] = 0
dest [28] = 1
dest [29] = 0
dest [30] = 2
dest [31] = 0
dest [32] = 1
dest [33] = 2
dest [34] = 2
dest [35] = 0
dest [36] = 1
dest [37] = 0
dest [38] = 2
dest [39] = 0
dest [40] = 1
dest [41] = 0
dest [42] = 1
dest [43] = 0
dest [44] = 2
dest [45] = 0
dest [46] = 22
dest [47] = 0
dest [48] = 2
dest [49] = 0
dest [50] = 2
dest [51] = 0
dest [52] = 0
dest [53] = 0
dest [54] = 2
dest [55] = 0
dest [56] = 1
dest [57] = 0
dest [58] = 2
dest [59] = 0
dest [60] = 3
dest [61] = 0
dest [62] = 2
dest [63] = 1
The distribution of the dest packets of size 5 is: 

dest [0] = 1
dest [1] = 0
dest [2] = 7
dest [3] = 0
dest [4] = 0
dest [5] = 9
dest [6] = 0
dest [7] = 1
dest [8] = 1
dest [9] = 1
dest [10] = 0
dest [11] = 0
dest [12] = 1
dest [13] = 1
dest [14] = 0
dest [15] = 1
dest [16] = 39
dest [17] = 1
dest [18] = 0
dest [19] = 0
dest [20] = 1
dest [21] = 1
dest [22] = 1
dest [23] = 26
dest [24] = 1
dest [25] = 1
dest [26] = 1
dest [27] = 1
dest [28] = 2
dest [29] = 1
dest [30] = 1
dest [31] = 1
dest [32] = 1
dest [33] = 0
dest [34] = 1
dest [35] = 1
dest [36] = 1
dest [37] = 2
dest [38] = 1
dest [39] = 2
dest [40] = 1
dest [41] = 1
dest [42] = 1
dest [43] = 1
dest [44] = 1
dest [45] = 0
dest [46] = 1
dest [47] = 2
dest [48] = 0
dest [49] = 0
dest [50] = 0
dest [51] = 1
dest [52] = 1
dest [53] = 0
dest [54] = 0
dest [55] = 0
dest [56] = 1
dest [57] = 1
dest [58] = 1
dest [59] = 1
dest [60] = 1
dest [61] = 18
dest [62] = 0
dest [63] = 2Total run time 1733.86
