make: Nothing to be done for 'all'.
Master: Running timer....
Master: Running SRC....
BEGIN Configuration File: ./examples/mesh88_lat_blackscholes
// $Id$
// 145 out of 213
topology = mesh;
k = 8;
n = 2;

// Routing
routing_function = dor;

// Flow control
num_vcs     = 1;
vc_buf_size = 4;
wait_for_tail_credit = 1;

// Router architecture
vc_allocator = islip;
sw_allocator = islip;
alloc_iters  = 1;

credit_delay   = 1;
routing_delay  = 1;
vc_alloc_delay = 1;
sw_alloc_delay = 1;

input_speedup     = 1;
output_speedup    = 1;
internal_speedup  = 1.0;

vc_busy_when_full = 0;

// Traffic
workload=netrace({/home/sarab/Downloads/BookSim_Benchmark_files/ferret_64c_simmedium.tra.bz2,100000000,1,2,1,1,0);

// Simulation
sim_type = workload;

END Configuration File: ./examples/mesh88_lat_blackscholes
Warming up...
===== Time: 50000 =====
Class 0:
Packets read from trace = 909 of 100000000 (0%)
Future packets = 1
Waiting packets = 0
Stalled packets = 898
Packets pending injection = 0
Packets in flight = 6
Minimum packet latency = 36
Average packet latency = 5415.25
Maximum packet latency = 21542
Minimum network latency = 36
Average network latency = 5415
Maximum network latency = 21542
Slowest packet = 4
Minimum flit latency = 36
Average flit latency = 2852.89
Maximum flit latency = 21535
Slowest flit = 12
Minimum fragmentation = 0
Average fragmentation = 5368.25
Maximum fragmentation = 21473
Minimum injected packet rate = 0 (at node 0)
Average injected packet rate = 3.125e-06
Maximum injected packet rate = 6e-05 (at node 33)
Minimum accepted packet rate = 0 (at node 0)
Average accepted packet rate = 1.25e-06
Maximum accepted packet rate = 4e-05 (at node 27)
Minimum injected flit rate = 0 (at node 0)
Average injected flit rate = 1.15625e-05
Maximum injected flit rate = 0.00028 (at node 33)
Minimum accepted flit rate = 0 (at node 0)
Average accepted flit rate = 5.9375e-06
Maximum accepted flit rate = 0.00018 (at node 5)
Total number of injected packets = 10
Total number of injected flits = 37
Average injected packet length = 3.7
Total number of accepted packets = 4
Total number of accepted flits = 19
Average accepted packet length = 4.75
Total in-flight flits = 19 (0 measured)
===== Time: 100000 =====
Class 0:
Packets read from trace = 1731 of 100000000 (0%)
Future packets = 1
Waiting packets = 0
Stalled packets = 1712
Packets pending injection = 1
Packets in flight = 11
Minimum packet latency = 36
Average packet latency = 11625
Maximum packet latency = 42110
Minimum network latency = 36
Average network latency = 11624.8
Maximum network latency = 42110
Slowest packet = 5
Minimum flit latency = 30
Average flit latency = 10727.3
Maximum flit latency = 47715
Slowest flit = 18
Minimum fragmentation = 0
Average fragmentation = 11577.7
Maximum fragmentation = 42048
Minimum injected packet rate = 0 (at node 0)
Average injected packet rate = 2.65625e-06
Maximum injected packet rate = 3e-05 (at node 1)
Minimum accepted packet rate = 0 (at node 0)
Average accepted packet rate = 9.375e-07
Maximum accepted packet rate = 2e-05 (at node 27)
Minimum injected flit rate = 0 (at node 0)
Average injected flit rate = 1.10938e-05
Maximum injected flit rate = 0.00015 (at node 38)
Minimum accepted flit rate = 0 (at node 0)
Average accepted flit rate = 4.53125e-06
Maximum accepted flit rate = 9e-05 (at node 5)
Total number of injected packets = 17
Total number of injected flits = 71
Average injected packet length = 4.17647
Total number of accepted packets = 6
Total number of accepted flits = 29
Average accepted packet length = 4.83333
Total in-flight flits = 44 (0 measured)
===== Time: 150000 =====
Class 0:
Packets read from trace = 1916 of 100000000 (0%)
Future packets = 1
Waiting packets = 0
Stalled packets = 1893
Packets pending injection = 5
Packets in flight = 11
Minimum packet latency = 36
Average packet latency = 11625
Maximum packet latency = 42110
Minimum network latency = 36
Average network latency = 11624.8
Maximum network latency = 42110
Slowest packet = 5
Minimum flit latency = 30
Average flit latency = 10727.3
Maximum flit latency = 47715
Slowest flit = 18
Minimum fragmentation = 0
Average fragmentation = 11577.7
Maximum fragmentation = 42048
Minimum injected packet rate = 0 (at node 0)
Average injected packet rate = 1.77083e-06
Maximum injected packet rate = 2e-05 (at node 1)
Minimum accepted packet rate = 0 (at node 0)
Average accepted packet rate = 6.25e-07
Maximum accepted packet rate = 1.33333e-05 (at node 27)
Minimum injected flit rate = 0 (at node 0)
Average injected flit rate = 7.39583e-06
Maximum injected flit rate = 0.0001 (at node 38)
Minimum accepted flit rate = 0 (at node 0)
Average accepted flit rate = 3.02083e-06
Maximum accepted flit rate = 6e-05 (at node 5)
Total number of injected packets = 17
Total number of injected flits = 71
Average injected packet length = 4.17647
Total number of accepted packets = 6
Total number of accepted flits = 29
Average accepted packet length = 4.83333
Total in-flight flits = 44 (0 measured)
Warmup ends after 150000 cycles.
Beginning measurements...
===== Time: 200000 =====
Class 0:
Packets read from trace = 2237 of 100000000 (0%)
Future packets = 1
Waiting packets = 0
Stalled packets = 2211
Packets pending injection = 7
Packets in flight = 11
Minimum packet latency = 81
Average packet latency = 81
Maximum packet latency = 81
Minimum network latency = 81
Average network latency = 81
Maximum network latency = 81
Slowest packet = 17
Minimum flit latency = 66
Average flit latency = 71.4
Maximum flit latency = 76
Slowest flit = 76
Minimum fragmentation = 11
Average fragmentation = 11
Maximum fragmentation = 11
Minimum injected packet rate = 0 (at node 0)
Average injected packet rate = 3.125e-07
Maximum injected packet rate = 2e-05 (at node 12)
Minimum accepted packet rate = 0 (at node 0)
Average accepted packet rate = 3.125e-07
Maximum accepted packet rate = 2e-05 (at node 40)
Minimum injected flit rate = 0 (at node 0)
Average injected flit rate = 1.5625e-06
Maximum injected flit rate = 0.0001 (at node 12)
Minimum accepted flit rate = 0 (at node 0)
Average accepted flit rate = 1.5625e-06
Maximum accepted flit rate = 0.0001 (at node 40)
Total number of injected packets = 1
Total number of injected flits = 5
Average injected packet length = 5
Total number of accepted packets = 1
Total number of accepted flits = 5
Average accepted packet length = 5
Total in-flight flits = 44 (0 measured)
===== Time: 250000 =====
Class 0:
Packets read from trace = 2342 of 100000000 (0%)
Future packets = 1
Waiting packets = 0
Stalled packets = 2316
Packets pending injection = 7
Packets in flight = 11
Minimum packet latency = 81
Average packet latency = 81
Maximum packet latency = 81
Minimum network latency = 81
Average network latency = 81
Maximum network latency = 81
Slowest packet = 17
Minimum flit latency = 66
Average flit latency = 71.4
Maximum flit latency = 76
Slowest flit = 76
Minimum fragmentation = 11
Average fragmentation = 11
Maximum fragmentation = 11
Minimum injected packet rate = 0 (at node 0)
Average injected packet rate = 1.5625e-07
Maximum injected packet rate = 1e-05 (at node 12)
Minimum accepted packet rate = 0 (at node 0)
Average accepted packet rate = 1.5625e-07
Maximum accepted packet rate = 1e-05 (at node 40)
Minimum injected flit rate = 0 (at node 0)
Average injected flit rate = 7.8125e-07
Maximum injected flit rate = 5e-05 (at node 12)
Minimum accepted flit rate = 0 (at node 0)
Average accepted flit rate = 7.8125e-07
Maximum accepted flit rate = 5e-05 (at node 40)
Total number of injected packets = 1
Total number of injected flits = 5
Average injected packet length = 5
Total number of accepted packets = 1
Total number of accepted flits = 5
Average accepted packet length = 5
Total in-flight flits = 44 (0 measured)
===== Time: 300000 =====
Class 0:
Packets read from trace = 2506 of 100000000 (0%)
Future packets = 1
Waiting packets = 0
Stalled packets = 2477
Packets pending injection = 8
Packets in flight = 12
Minimum packet latency = 81
Average packet latency = 81
Maximum packet latency = 81
Minimum network latency = 81
Average network latency = 81
Maximum network latency = 81
Slowest packet = 17
Minimum flit latency = 66
Average flit latency = 66837.6
Maximum flit latency = 225133
Slowest flit = 22
Minimum fragmentation = 11
Average fragmentation = 11
Maximum fragmentation = 11
Minimum injected packet rate = 0 (at node 0)
Average injected packet rate = 3.125e-07
Maximum injected packet rate = 6.66667e-06 (at node 12)
Minimum accepted packet rate = 0 (at node 0)
Average accepted packet rate = 2.08333e-07
Maximum accepted packet rate = 6.66667e-06 (at node 40)
Minimum injected flit rate = 0 (at node 0)
Average injected flit rate = 1.5625e-06
Maximum injected flit rate = 3.33333e-05 (at node 12)
Minimum accepted flit rate = 0 (at node 0)
Average accepted flit rate = 1.45833e-06
Maximum accepted flit rate = 3.33333e-05 (at node 40)
Total number of injected packets = 3
Total number of injected flits = 15
Average injected packet length = 5
Total number of accepted packets = 2
Total number of accepted flits = 14
Average accepted packet length = 7
Total in-flight flits = 45 (6 measured)
===== Time: 350000 =====
Class 0:
Packets read from trace = 2604 of 100000000 (0%)
Future packets = 1
Waiting packets = 0
Stalled packets = 2573
Packets pending injection = 8
Packets in flight = 14
Minimum packet latency = 81
Average packet latency = 81
Maximum packet latency = 81
Minimum network latency = 81
Average network latency = 81
Maximum network latency = 81
Slowest packet = 17
Minimum flit latency = 44
Average flit latency = 51994.6
Maximum flit latency = 225133
Slowest flit = 22
Minimum fragmentation = 11
Average fragmentation = 11
Maximum fragmentation = 11
Minimum injected packet rate = 0 (at node 0)
Average injected packet rate = 3.90625e-07
Maximum injected packet rate = 5e-06 (at node 12)
Minimum accepted packet rate = 0 (at node 0)
Average accepted packet rate = 1.5625e-07
Maximum accepted packet rate = 5e-06 (at node 40)
Minimum injected flit rate = 0 (at node 0)
Average injected flit rate = 1.95313e-06
Maximum injected flit rate = 2.5e-05 (at node 12)
Minimum accepted flit rate = 0 (at node 0)
Average accepted flit rate = 1.40625e-06
Maximum accepted flit rate = 2.5e-05 (at node 40)
Total number of injected packets = 5
Total number of injected flits = 25
Average injected packet length = 5
Total number of accepted packets = 2
Total number of accepted flits = 18
Average accepted packet length = 9
Total in-flight flits = 51 (12 measured)
===== Time: 400000 =====
Class 0:
Packets read from trace = 2730 of 100000000 (0%)
Future packets = 1
Waiting packets = 0
Stalled packets = 2697
Packets pending injection = 9
Packets in flight = 15
Minimum packet latency = 81
Average packet latency = 81
Maximum packet latency = 81
Minimum network latency = 81
Average network latency = 81
Maximum network latency = 81
Slowest packet = 17
Minimum flit latency = 44
Average flit latency = 51994.6
Maximum flit latency = 225133
Slowest flit = 22
Minimum fragmentation = 11
Average fragmentation = 11
Maximum fragmentation = 11
Minimum injected packet rate = 0 (at node 0)
Average injected packet rate = 3.75e-07
Maximum injected packet rate = 8e-06 (at node 24)
Minimum accepted packet rate = 0 (at node 0)
Average accepted packet rate = 1.25e-07
Maximum accepted packet rate = 4e-06 (at node 40)
Minimum injected flit rate = 0 (at node 0)
Average injected flit rate = 1.8125e-06
Maximum injected flit rate = 3.6e-05 (at node 24)
Minimum accepted flit rate = 0 (at node 0)
Average accepted flit rate = 1.125e-06
Maximum accepted flit rate = 2e-05 (at node 40)
Total number of injected packets = 6
Total number of injected flits = 29
Average injected packet length = 4.83333
Total number of accepted packets = 2
Total number of accepted flits = 18
Average accepted packet length = 9
Total in-flight flits = 56 (17 measured)
===== Time: 450000 =====
Class 0:
Packets read from trace = 3278 of 100000000 (0%)
Future packets = 1
Waiting packets = 0
Stalled packets = 3233
Packets pending injection = 12
Packets in flight = 23
Minimum packet latency = 81
Average packet latency = 164.5
Maximum packet latency = 248
Minimum network latency = 81
Average network latency = 164.5
Maximum network latency = 248
Slowest packet = 24
Minimum flit latency = 44
Average flit latency = 34696.4
Maximum flit latency = 225133
Slowest flit = 22
Minimum fragmentation = 11
Average fragmentation = 98
Maximum fragmentation = 185
Minimum injected packet rate = 0 (at node 0)
Average injected packet rate = 7.29167e-07
Maximum injected packet rate = 6.66667e-06 (at node 2)
Minimum accepted packet rate = 0 (at node 0)
Average accepted packet rate = 1.5625e-07
Maximum accepted packet rate = 6.66667e-06 (at node 40)
Minimum injected flit rate = 0 (at node 0)
Average injected flit rate = 3.48958e-06
Maximum injected flit rate = 3.33333e-05 (at node 2)
Minimum accepted flit rate = 0 (at node 0)
Average accepted flit rate = 1.40625e-06
Maximum accepted flit rate = 4.66667e-05 (at node 40)
Total number of injected packets = 14
Total number of injected flits = 67
Average injected packet length = 4.78571
Total number of accepted packets = 3
Total number of accepted flits = 27
Average accepted packet length = 9
Total in-flight flits = 92 (53 measured)
===== Time: 500000 =====
Class 0:
Packets read from trace = 3724 of 100000000 (0%)
Future packets = 1
Waiting packets = 0
Stalled packets = 3663
Packets pending injection = 23
Packets in flight = 25
Minimum packet latency = 81
Average packet latency = 14373.2
Maximum packet latency = 58139
Minimum network latency = 81
Average network latency = 14371.4
Maximum network latency = 58136
Slowest packet = 25
Minimum flit latency = 44
Average flit latency = 24024.2
Maximum flit latency = 225133
Slowest flit = 22
Minimum fragmentation = 11
Average fragmentation = 14306.2
Maximum fragmentation = 58071
Minimum injected packet rate = 0 (at node 0)
Average injected packet rate = 8.03571e-07
Maximum injected packet rate = 1.42857e-05 (at node 20)
Minimum accepted packet rate = 0 (at node 0)
Average accepted packet rate = 2.67857e-07
Maximum accepted packet rate = 1.42857e-05 (at node 40)
Minimum injected flit rate = 0 (at node 0)
Average injected flit rate = 3.83929e-06
Maximum injected flit rate = 7.14286e-05 (at node 20)
Minimum accepted flit rate = 0 (at node 0)
Average accepted flit rate = 1.875e-06
Maximum accepted flit rate = 8.28571e-05 (at node 40)
Total number of injected packets = 18
Total number of injected flits = 86
Average injected packet length = 4.77778
Total number of accepted packets = 6
Total number of accepted flits = 42
Average accepted packet length = 7
Total in-flight flits = 102 (63 measured)
===== Time: 550000 =====
Class 0:
Packets read from trace = 4053 of 100000000 (0%)
Future packets = 1
Waiting packets = 0
Stalled packets = 3980
Packets pending injection = 32
Packets in flight = 26
Minimum packet latency = 81
Average packet latency = 13149.4
Maximum packet latency = 58139
Minimum network latency = 81
Average network latency = 13147.3
Maximum network latency = 58136
Slowest packet = 25
Minimum flit latency = 44
Average flit latency = 19801
Maximum flit latency = 225133
Slowest flit = 22
Minimum fragmentation = 11
Average fragmentation = 13082.6
Maximum fragmentation = 58071
Minimum injected packet rate = 0 (at node 0)
Average injected packet rate = 8.20313e-07
Maximum injected packet rate = 1.75e-05 (at node 20)
Minimum accepted packet rate = 0 (at node 0)
Average accepted packet rate = 3.125e-07
Maximum accepted packet rate = 1.75e-05 (at node 40)
Minimum injected flit rate = 0 (at node 0)
Average injected flit rate = 3.90625e-06
Maximum injected flit rate = 8.75e-05 (at node 20)
Minimum accepted flit rate = 0 (at node 0)
Average accepted flit rate = 2.03125e-06
Maximum accepted flit rate = 9.75e-05 (at node 40)
Total number of injected packets = 21
Total number of injected flits = 100
Average injected packet length = 4.7619
Total number of accepted packets = 8
Total number of accepted flits = 52
Average accepted packet length = 6.5
Total in-flight flits = 107 (68 measured)
===== Time: 600000 =====
Class 0:
Packets read from trace = 4686 of 100000000 (0%)
Future packets = 1
Waiting packets = 0
Stalled packets = 4594
Packets pending injection = 50
Packets in flight = 27
Minimum packet latency = 81
Average packet latency = 13149.4
Maximum packet latency = 58139
Minimum network latency = 81
Average network latency = 13147.3
Maximum network latency = 58136
Slowest packet = 25
Minimum flit latency = 22
Average flit latency = 19068.5
Maximum flit latency = 225133
Slowest flit = 22
Minimum fragmentation = 11
Average fragmentation = 13082.6
Maximum fragmentation = 58071
Minimum injected packet rate = 0 (at node 0)
Average injected packet rate = 7.63889e-07
Maximum injected packet rate = 1.55556e-05 (at node 20)
Minimum accepted packet rate = 0 (at node 0)
Average accepted packet rate = 2.77778e-07
Maximum accepted packet rate = 1.55556e-05 (at node 40)
Minimum injected flit rate = 0 (at node 0)
Average injected flit rate = 3.64583e-06
Maximum injected flit rate = 7.77778e-05 (at node 20)
Minimum accepted flit rate = 0 (at node 0)
Average accepted flit rate = 1.875e-06
Maximum accepted flit rate = 8.66667e-05 (at node 40)
Total number of injected packets = 22
Total number of injected flits = 105
Average injected packet length = 4.77273
Total number of accepted packets = 8
Total number of accepted flits = 54
Average accepted packet length = 6.75
Total in-flight flits = 110 (71 measured)
===== Time: 650000 =====
Class 0:
Packets read from trace = 5793 of 100000000 (0%)
Future packets = 1
Waiting packets = 0
Stalled packets = 5675
Packets pending injection = 72
Packets in flight = 26
Minimum packet latency = 81
Average packet latency = 69691.1
Maximum packet latency = 349617
Minimum network latency = 81
Average network latency = 69689.7
Maximum network latency = 349617
Slowest packet = 19
Minimum flit latency = 22
Average flit latency = 57062
Maximum flit latency = 542089
Slowest flit = 47
Minimum fragmentation = 11
Average fragmentation = 69633.1
Maximum fragmentation = 349547
Minimum injected packet rate = 0 (at node 0)
Average injected packet rate = 8.4375e-07
Maximum injected packet rate = 1.4e-05 (at node 20)
Minimum accepted packet rate = 0 (at node 0)
Average accepted packet rate = 4.0625e-07
Maximum accepted packet rate = 1.4e-05 (at node 40)
Minimum injected flit rate = 0 (at node 0)
Average injected flit rate = 4.03125e-06
Maximum injected flit rate = 7e-05 (at node 20)
Minimum accepted flit rate = 0 (at node 0)
Average accepted flit rate = 2.46875e-06
Maximum accepted flit rate = 7.8e-05 (at node 40)
Total number of injected packets = 27
Total number of injected flits = 129
Average injected packet length = 4.77778
Total number of accepted packets = 13
Total number of accepted flits = 79
Average accepted packet length = 6.07692
Total in-flight flits = 105 (67 measured)
Completed measurements after 650000 cycles.
Draining remaining packets ...
Class 0:
Remaining flits: 6 7 27 28 29 30 31 32 33 34 [...] (104 flits)
Measured flits: 82 93 94 95 96 97 98 99 100 101 [...] (66 flits)
Class 0:
Remaining flits: 6 7 27 28 29 30 31 32 33 34 [...] (102 flits)
Measured flits: 82 93 94 95 96 97 98 99 100 101 [...] (64 flits)
Class 0:
Remaining flits: 27 28 29 30 31 32 33 34 35 36 [...] (96 flits)
Measured flits: 82 93 94 95 96 97 98 99 100 101 [...] (60 flits)
Class 0:
Remaining flits: 27 28 29 30 31 32 33 34 35 36 [...] (94 flits)
Measured flits: 82 93 94 95 96 97 98 99 100 101 [...] (58 flits)
Class 0:
Remaining flits: 27 28 29 30 31 32 33 34 35 36 [...] (87 flits)
Measured flits: 82 97 98 99 100 101 102 103 104 105 [...] (51 flits)
Class 0:
Remaining flits: 27 28 29 30 31 32 33 34 35 36 [...] (83 flits)
Measured flits: 82 98 99 100 101 102 103 104 105 106 [...] (47 flits)
Class 0:
Remaining flits: 27 31 32 33 34 35 36 37 48 49 [...] (80 flits)
Measured flits: 82 98 99 100 101 102 103 104 105 106 [...] (47 flits)
Class 0:
Remaining flits: 27 33 34 35 36 37 48 49 50 51 [...] (78 flits)
Measured flits: 82 98 99 100 101 102 103 104 105 106 [...] (47 flits)
Class 0:
Remaining flits: 27 33 34 35 36 37 48 49 50 51 [...] (76 flits)
Measured flits: 82 100 101 102 103 104 105 106 107 118 [...] (45 flits)
Class 0:
Remaining flits: 27 33 34 35 36 37 48 49 50 51 [...] (73 flits)
Measured flits: 82 103 104 105 106 107 118 119 120 121 [...] (42 flits)
Class 0:
Remaining flits: 27 33 34 35 36 37 48 49 50 51 [...] (73 flits)
Measured flits: 82 103 104 105 106 107 118 119 120 121 [...] (42 flits)
Class 0:
Remaining flits: 27 33 34 35 36 37 48 49 50 51 [...] (69 flits)
Measured flits: 82 103 104 105 106 107 118 119 120 121 [...] (38 flits)
Class 0:
Remaining flits: 27 33 34 35 36 37 48 49 50 51 [...] (68 flits)
Measured flits: 82 103 104 105 106 107 118 119 120 121 [...] (37 flits)
Class 0:
Remaining flits: 27 33 34 35 36 37 48 49 50 51 [...] (68 flits)
Measured flits: 82 103 104 105 106 107 118 119 120 121 [...] (37 flits)
Class 0:
Remaining flits: 27 33 34 35 36 37 48 49 50 51 [...] (68 flits)
Measured flits: 82 103 104 105 106 107 118 119 120 121 [...] (37 flits)
Class 0:
Remaining flits: 27 33 34 35 36 37 48 49 50 51 [...] (68 flits)
Measured flits: 82 103 104 105 106 107 118 119 120 121 [...] (37 flits)
Class 0:
Remaining flits: 27 33 34 35 36 37 48 49 50 51 [...] (68 flits)
Measured flits: 82 103 104 105 106 107 118 119 120 121 [...] (37 flits)
Class 0:
Remaining flits: 27 33 34 35 36 37 48 49 50 51 [...] (68 flits)
Measured flits: 82 103 104 105 106 107 118 119 120 121 [...] (37 flits)
Class 0:
Remaining flits: 27 33 34 35 36 37 48 49 50 51 [...] (68 flits)
Measured flits: 82 103 104 105 106 107 118 119 120 121 [...] (37 flits)
Class 0:
Remaining flits: 27 33 34 35 36 37 48 49 50 51 [...] (68 flits)
Measured flits: 82 103 104 105 106 107 118 119 120 121 [...] (37 flits)
Class 0:
Remaining flits: 27 33 34 35 36 37 48 49 50 51 [...] (68 flits)
Measured flits: 82 103 104 105 106 107 118 119 120 121 [...] (37 flits)
Class 0:
Remaining flits: 27 33 34 35 36 37 48 49 50 51 [...] (68 flits)
Measured flits: 82 103 104 105 106 107 118 119 120 121 [...] (37 flits)
Class 0:
Remaining flits: 27 33 34 35 36 37 48 49 50 51 [...] (68 flits)
Measured flits: 82 103 104 105 106 107 118 119 120 121 [...] (37 flits)
Class 0:
Remaining flits: 27 33 34 35 36 37 48 49 50 51 [...] (68 flits)
Measured flits: 82 103 104 105 106 107 118 119 120 121 [...] (37 flits)
Class 0:
Remaining flits: 27 33 34 35 36 37 48 49 50 51 [...] (68 flits)
Measured flits: 82 103 104 105 106 107 118 119 120 121 [...] (37 flits)
Class 0:
Remaining flits: 27 33 34 35 36 37 48 49 50 51 [...] (68 flits)
Measured flits: 82 103 104 105 106 107 118 119 120 121 [...] (37 flits)
Class 0:
Remaining flits: 27 33 34 35 36 37 48 49 50 51 [...] (68 flits)
Measured flits: 82 103 104 105 106 107 118 119 120 121 [...] (37 flits)
Class 0:
Remaining flits: 27 33 34 35 36 37 48 49 50 51 [...] (68 flits)
Measured flits: 82 103 104 105 106 107 118 119 120 121 [...] (37 flits)
Class 0:
Remaining flits: 27 33 34 35 36 37 48 49 50 51 [...] (68 flits)
Measured flits: 82 103 104 105 106 107 118 119 120 121 [...] (37 flits)
Class 0:
Remaining flits: 27 33 34 35 36 37 48 49 50 51 [...] (68 flits)
Measured flits: 82 103 104 105 106 107 118 119 120 121 [...] (37 flits)
Class 0:
Remaining flits: 27 33 34 35 36 37 48 49 50 51 [...] (68 flits)
Measured flits: 82 103 104 105 106 107 118 119 120 121 [...] (37 flits)
Class 0:
Remaining flits: 27 33 34 35 36 37 48 49 50 51 [...] (68 flits)
Measured flits: 82 103 104 105 106 107 118 119 120 121 [...] (37 flits)
Class 0:
Remaining flits: 27 33 34 35 36 37 48 49 50 51 [...] (68 flits)
Measured flits: 82 103 104 105 106 107 118 119 120 121 [...] (37 flits)
Class 0:
Remaining flits: 27 33 34 35 36 37 48 49 50 51 [...] (68 flits)
Measured flits: 82 103 104 105 106 107 118 119 120 121 [...] (37 flits)
Class 0:
Remaining flits: 27 33 34 35 36 37 48 49 50 51 [...] (68 flits)
Measured flits: 82 103 104 105 106 107 118 119 120 121 [...] (37 flits)
Class 0:
Remaining flits: 27 33 34 35 36 37 48 49 50 51 [...] (68 flits)
Measured flits: 82 103 104 105 106 107 118 119 120 121 [...] (37 flits)
Class 0:
Remaining flits: 27 33 34 35 36 37 48 49 50 51 [...] (68 flits)
Measured flits: 82 103 104 105 106 107 118 119 120 121 [...] (37 flits)
Class 0:
Remaining flits: 27 33 34 35 36 37 48 49 50 51 [...] (68 flits)
Measured flits: 82 103 104 105 106 107 118 119 120 121 [...] (37 flits)
Class 0:
Remaining flits: 27 33 34 35 36 37 48 49 50 51 [...] (68 flits)
Measured flits: 82 103 104 105 106 107 118 119 120 121 [...] (37 flits)
Class 0:
Remaining flits: 27 33 34 35 36 37 48 49 50 51 [...] (68 flits)
Measured flits: 82 103 104 105 106 107 118 119 120 121 [...] (37 flits)
Class 0:
Remaining flits: 27 33 34 35 36 37 48 49 50 51 [...] (68 flits)
Measured flits: 82 103 104 105 106 107 118 119 120 121 [...] (37 flits)
Class 0:
Remaining flits: 27 33 34 35 36 37 48 49 50 51 [...] (68 flits)
Measured flits: 82 103 104 105 106 107 118 119 120 121 [...] (37 flits)
Class 0:
Remaining flits: 27 33 34 35 36 37 48 49 50 51 [...] (68 flits)
Measured flits: 82 103 104 105 106 107 118 119 120 121 [...] (37 flits)
Class 0:
Remaining flits: 27 33 34 35 36 37 48 49 50 51 [...] (68 flits)
Measured flits: 82 103 104 105 106 107 118 119 120 121 [...] (37 flits)
Class 0:
Remaining flits: 27 33 34 35 36 37 48 49 50 51 [...] (68 flits)
Measured flits: 82 103 104 105 106 107 118 119 120 121 [...] (37 flits)
Class 0:
Remaining flits: 27 33 34 35 36 37 48 49 50 51 [...] (68 flits)
Measured flits: 82 103 104 105 106 107 118 119 120 121 [...] (37 flits)
Class 0:
Remaining flits: 27 33 34 35 36 37 48 49 50 51 [...] (68 flits)
Measured flits: 82 103 104 105 106 107 118 119 120 121 [...] (37 flits)
Class 0:
Remaining flits: 27 33 34 35 36 37 48 49 50 51 [...] (68 flits)
Measured flits: 82 103 104 105 106 107 118 119 120 121 [...] (37 flits)
Class 0:
Remaining flits: 27 33 34 35 36 37 48 49 50 51 [...] (68 flits)
Measured flits: 82 103 104 105 106 107 118 119 120 121 [...] (37 flits)
Class 0:
Remaining flits: 27 33 34 35 36 37 48 49 50 51 [...] (68 flits)
Measured flits: 82 103 104 105 106 107 118 119 120 121 [...] (37 flits)
Class 0:
Remaining flits: 27 33 34 35 36 37 48 49 50 51 [...] (68 flits)
Measured flits: 82 103 104 105 106 107 118 119 120 121 [...] (37 flits)
Class 0:
Remaining flits: 27 33 34 35 36 37 48 49 50 51 [...] (68 flits)
Measured flits: 82 103 104 105 106 107 118 119 120 121 [...] (37 flits)
Class 0:
Remaining flits: 27 33 34 35 36 37 48 49 50 51 [...] (68 flits)
Measured flits: 82 103 104 105 106 107 118 119 120 121 [...] (37 flits)
Class 0:
Remaining flits: 27 33 34 35 36 37 48 49 50 51 [...] (68 flits)
Measured flits: 82 103 104 105 106 107 118 119 120 121 [...] (37 flits)
Class 0:
Remaining flits: 27 33 34 35 36 37 48 49 50 51 [...] (68 flits)
Measured flits: 82 103 104 105 106 107 118 119 120 121 [...] (37 flits)
Class 0:
Remaining flits: 27 33 34 35 36 37 48 49 50 51 [...] (68 flits)
Measured flits: 82 103 104 105 106 107 118 119 120 121 [...] (37 flits)
Class 0:
Remaining flits: 27 33 34 35 36 37 48 49 50 51 [...] (68 flits)
Measured flits: 82 103 104 105 106 107 118 119 120 121 [...] (37 flits)
Class 0:
Remaining flits: 27 33 34 35 36 37 48 49 50 51 [...] (68 flits)
Measured flits: 82 103 104 105 106 107 118 119 120 121 [...] (37 flits)
Class 0:
Remaining flits: 27 33 34 35 36 37 48 49 50 51 [...] (68 flits)
Measured flits: 82 103 104 105 106 107 118 119 120 121 [...] (37 flits)
Class 0:
Remaining flits: 27 33 34 35 36 37 48 49 50 51 [...] (68 flits)
Measured flits: 82 103 104 105 106 107 118 119 120 121 [...] (37 flits)
Class 0:
Remaining flits: 27 33 34 35 36 37 48 49 50 51 [...] (68 flits)
Measured flits: 82 103 104 105 106 107 118 119 120 121 [...] (37 flits)
Class 0:
Remaining flits: 27 33 34 35 36 37 48 49 50 51 [...] (68 flits)
Measured flits: 82 103 104 105 106 107 118 119 120 121 [...] (37 flits)
Class 0:
Remaining flits: 27 33 34 35 36 37 48 49 50 51 [...] (68 flits)
Measured flits: 82 103 104 105 106 107 118 119 120 121 [...] (37 flits)
Class 0:
Remaining flits: 27 33 34 35 36 37 48 49 50 51 [...] (68 flits)
Measured flits: 82 103 104 105 106 107 118 119 120 121 [...] (37 flits)
Class 0:
Remaining flits: 27 33 34 35 36 37 48 49 50 51 [...] (68 flits)
Measured flits: 82 103 104 105 106 107 118 119 120 121 [...] (37 flits)
Class 0:
Remaining flits: 27 33 34 35 36 37 48 49 50 51 [...] (68 flits)
Measured flits: 82 103 104 105 106 107 118 119 120 121 [...] (37 flits)
Class 0:
Remaining flits: 27 33 34 35 36 37 48 49 50 51 [...] (68 flits)
Measured flits: 82 103 104 105 106 107 118 119 120 121 [...] (37 flits)
Class 0:
Remaining flits: 27 33 34 35 36 37 48 49 50 51 [...] (68 flits)
Measured flits: 82 103 104 105 106 107 118 119 120 121 [...] (37 flits)
Class 0:
Remaining flits: 27 33 34 35 36 37 48 49 50 51 [...] (68 flits)
Measured flits: 82 103 104 105 106 107 118 119 120 121 [...] (37 flits)
Class 0:
Remaining flits: 27 33 34 35 36 37 48 49 50 51 [...] (68 flits)
Measured flits: 82 103 104 105 106 107 118 119 120 121 [...] (37 flits)
Class 0:
Remaining flits: 27 33 34 35 36 37 48 49 50 51 [...] (68 flits)
Measured flits: 82 103 104 105 106 107 118 119 120 121 [...] (37 flits)
Class 0:
Remaining flits: 27 33 34 35 36 37 48 49 50 51 [...] (68 flits)
Measured flits: 82 103 104 105 106 107 118 119 120 121 [...] (37 flits)
Class 0:
Remaining flits: 27 33 34 35 36 37 48 49 50 51 [...] (68 flits)
Measured flits: 82 103 104 105 106 107 118 119 120 121 [...] (37 flits)
Class 0:
Remaining flits: 27 33 34 35 36 37 48 49 50 51 [...] (68 flits)
Measured flits: 82 103 104 105 106 107 118 119 120 121 [...] (37 flits)
Class 0:
Remaining flits: 27 33 34 35 36 37 48 49 50 51 [...] (68 flits)
Measured flits: 82 103 104 105 106 107 118 119 120 121 [...] (37 flits)
Class 0:
Remaining flits: 27 33 34 35 36 37 48 49 50 51 [...] (68 flits)
Measured flits: 82 103 104 105 106 107 118 119 120 121 [...] (37 flits)
Class 0:
Remaining flits: 27 33 34 35 36 37 48 49 50 51 [...] (68 flits)
Measured flits: 82 103 104 105 106 107 118 119 120 121 [...] (37 flits)
Class 0:
Remaining flits: 27 33 34 35 36 37 48 49 50 51 [...] (68 flits)
Measured flits: 82 103 104 105 106 107 118 119 120 121 [...] (37 flits)
Class 0:
Remaining flits: 27 33 34 35 36 37 48 49 50 51 [...] (68 flits)
Measured flits: 82 103 104 105 106 107 118 119 120 121 [...] (37 flits)
Class 0:
Remaining flits: 27 33 34 35 36 37 48 49 50 51 [...] (68 flits)
Measured flits: 82 103 104 105 106 107 118 119 120 121 [...] (37 flits)
Class 0:
Remaining flits: 27 33 34 35 36 37 48 49 50 51 [...] (68 flits)
Measured flits: 82 103 104 105 106 107 118 119 120 121 [...] (37 flits)
Class 0:
Remaining flits: 27 33 34 35 36 37 48 49 50 51 [...] (68 flits)
Measured flits: 82 103 104 105 106 107 118 119 120 121 [...] (37 flits)
Class 0:
Remaining flits: 27 33 34 35 36 37 48 49 50 51 [...] (68 flits)
Measured flits: 82 103 104 105 106 107 118 119 120 121 [...] (37 flits)
Class 0:
Remaining flits: 27 33 34 35 36 37 48 49 50 51 [...] (68 flits)
Measured flits: 82 103 104 105 106 107 118 119 120 121 [...] (37 flits)
Class 0:
Remaining flits: 27 33 34 35 36 37 48 49 50 51 [...] (68 flits)
Measured flits: 82 103 104 105 106 107 118 119 120 121 [...] (37 flits)
Class 0:
Remaining flits: 27 33 34 35 36 37 48 49 50 51 [...] (68 flits)
Measured flits: 82 103 104 105 106 107 118 119 120 121 [...] (37 flits)
Class 0:
Remaining flits: 27 33 34 35 36 37 48 49 50 51 [...] (68 flits)
Measured flits: 82 103 104 105 106 107 118 119 120 121 [...] (37 flits)
Class 0:
Remaining flits: 27 33 34 35 36 37 48 49 50 51 [...] (68 flits)
Measured flits: 82 103 104 105 106 107 118 119 120 121 [...] (37 flits)
Class 0:
Remaining flits: 27 33 34 35 36 37 48 49 50 51 [...] (68 flits)
Measured flits: 82 103 104 105 106 107 118 119 120 121 [...] (37 flits)
Class 0:
Remaining flits: 27 33 34 35 36 37 48 49 50 51 [...] (68 flits)
Measured flits: 82 103 104 105 106 107 118 119 120 121 [...] (37 flits)
Class 0:
Remaining flits: 27 33 34 35 36 37 48 49 50 51 [...] (68 flits)
Measured flits: 82 103 104 105 106 107 118 119 120 121 [...] (37 flits)
Class 0:
Remaining flits: 27 33 34 35 36 37 48 49 50 51 [...] (68 flits)
Measured flits: 82 103 104 105 106 107 118 119 120 121 [...] (37 flits)
Class 0:
Remaining flits: 27 33 34 35 36 37 48 49 50 51 [...] (68 flits)
Measured flits: 82 103 104 105 106 107 118 119 120 121 [...] (37 flits)
Class 0:
Remaining flits: 27 33 34 35 36 37 48 49 50 51 [...] (68 flits)
Measured flits: 82 103 104 105 106 107 118 119 120 121 [...] (37 flits)
Class 0:
Remaining flits: 27 33 34 35 36 37 48 49 50 51 [...] (68 flits)
Measured flits: 82 103 104 105 106 107 118 119 120 121 [...] (37 flits)
Class 0:
Remaining flits: 27 33 34 35 36 37 48 49 50 51 [...] (68 flits)
Measured flits: 82 103 104 105 106 107 118 119 120 121 [...] (37 flits)
Class 0:
Remaining flits: 27 33 34 35 36 37 48 49 50 51 [...] (68 flits)
Measured flits: 82 103 104 105 106 107 118 119 120 121 [...] (37 flits)
Class 0:
Remaining flits: 27 33 34 35 36 37 48 49 50 51 [...] (68 flits)
Measured flits: 82 103 104 105 106 107 118 119 120 121 [...] (37 flits)
Class 0:
Remaining flits: 27 33 34 35 36 37 48 49 50 51 [...] (68 flits)
Measured flits: 82 103 104 105 106 107 118 119 120 121 [...] (37 flits)
Class 0:
Remaining flits: 27 33 34 35 36 37 48 49 50 51 [...] (68 flits)
Measured flits: 82 103 104 105 106 107 118 119 120 121 [...] (37 flits)
Class 0:
Remaining flits: 27 33 34 35 36 37 48 49 50 51 [...] (68 flits)
Measured flits: 82 103 104 105 106 107 118 119 120 121 [...] (37 flits)
Time taken is 651000 cycles
====== Traffic class 0 ======

Total number of flits generated = 213, changed lanes = 0
Overall minimum packet latency = 81 (1 samples)
Overall average packet latency = 109873 (1 samples)
Overall maximum packet latency = 349617 (1 samples)
Overall minimum network latency = 81 (1 samples)
Overall average network latency = 109872 (1 samples)
Overall maximum network latency = 349617 (1 samples)
Overall minimum flit latency = 22 (1 samples)
Overall average flit latency = 117278 (1 samples)
Overall maximum flit latency = 649875 (1 samples)
Overall minimum fragmentation = 5 (1 samples)
Overall average fragmentation = 50579.1 (1 samples)
Overall maximum fragmentation = 349547 (1 samples)
Overall minimum injected packet rate = 0 (1 samples)
Overall average injected packet rate = 8.4375e-07 (1 samples)
Overall maximum injected packet rate = 1.4e-05 (1 samples)
Overall minimum accepted packet rate = 0 (1 samples)
Overall average accepted packet rate = 4.0625e-07 (1 samples)
Overall maximum accepted packet rate = 1.4e-05 (1 samples)
Overall minimum injected flit rate = 0 (1 samples)
Overall average injected flit rate = 4.03125e-06 (1 samples)
Overall maximum injected flit rate = 7e-05 (1 samples)
Overall minimum accepted flit rate = 0 (1 samples)
Overall average accepted flit rate = 2.46875e-06 (1 samples)
Overall maximum accepted flit rate = 7.8e-05 (1 samples)
Overall average injected packet size = 4.77778 (1 samples)
Overall average accepted packet size = 6.07692 (1 samples)
Overall average hops = 6.52632 (1 samples)
Overall throughput of the network (flits/cycle) = 0.00029
Overall throughput of the network (packets/cycle) = 5.8e-05
Overall workload runtime = 500000 (1 samples)

The distribution of the source packets of size 1 is: 

Source [0] = 0
Source [1] = 0
Source [2] = 1
Source [3] = 0
Source [4] = 0
Source [5] = 0
Source [6] = 0
Source [7] = 0
Source [8] = 0
Source [9] = 0
Source [10] = 0
Source [11] = 0
Source [12] = 0
Source [13] = 0
Source [14] = 0
Source [15] = 0
Source [16] = 0
Source [17] = 0
Source [18] = 0
Source [19] = 0
Source [20] = 0
Source [21] = 0
Source [22] = 0
Source [23] = 1
Source [24] = 0
Source [25] = 0
Source [26] = 0
Source [27] = 1
Source [28] = 0
Source [29] = 0
Source [30] = 0
Source [31] = 0
Source [32] = 0
Source [33] = 0
Source [34] = 0
Source [35] = 0
Source [36] = 0
Source [37] = 0
Source [38] = 0
Source [39] = 0
Source [40] = 0
Source [41] = 0
Source [42] = 0
Source [43] = 0
Source [44] = 0
Source [45] = 0
Source [46] = 0
Source [47] = 0
Source [48] = 0
Source [49] = 0
Source [50] = 0
Source [51] = 0
Source [52] = 0
Source [53] = 0
Source [54] = 0
Source [55] = 0
Source [56] = 0
Source [57] = 0
Source [58] = 0
Source [59] = 0
Source [60] = 0
Source [61] = 0
Source [62] = 0
Source [63] = 0
The distribution of the source packets of size 5 is: 

Source [0] = 0
Source [1] = 3
Source [2] = 3
Source [3] = 1
Source [4] = 0
Source [5] = 0
Source [6] = 0
Source [7] = 0
Source [8] = 0
Source [9] = 1
Source [10] = 0
Source [11] = 0
Source [12] = 1
Source [13] = 0
Source [14] = 0
Source [15] = 2
Source [16] = 0
Source [17] = 0
Source [18] = 0
Source [19] = 0
Source [20] = 7
Source [21] = 0
Source [22] = 0
Source [23] = 0
Source [24] = 2
Source [25] = 0
Source [26] = 0
Source [27] = 1
Source [28] = 0
Source [29] = 0
Source [30] = 0
Source [31] = 0
Source [32] = 1
Source [33] = 3
Source [34] = 0
Source [35] = 0
Source [36] = 1
Source [37] = 1
Source [38] = 5
Source [39] = 2
Source [40] = 1
Source [41] = 0
Source [42] = 1
Source [43] = 0
Source [44] = 1
Source [45] = 3
Source [46] = 2
Source [47] = 0
Source [48] = 0
Source [49] = 0
Source [50] = 0
Source [51] = 0
Source [52] = 0
Source [53] = 0
Source [54] = 0
Source [55] = 0
Source [56] = 0
Source [57] = 0
Source [58] = 0
Source [59] = 0
Source [60] = 0
Source [61] = 0
Source [62] = 0
Source [63] = 0
The distribution of the dest packets of size 1 is: 

dest [0] = 0
dest [1] = 0
dest [2] = 1
dest [3] = 0
dest [4] = 0
dest [5] = 0
dest [6] = 0
dest [7] = 0
dest [8] = 0
dest [9] = 0
dest [10] = 0
dest [11] = 0
dest [12] = 0
dest [13] = 0
dest [14] = 0
dest [15] = 0
dest [16] = 0
dest [17] = 0
dest [18] = 0
dest [19] = 0
dest [20] = 0
dest [21] = 0
dest [22] = 0
dest [23] = 0
dest [24] = 0
dest [25] = 0
dest [26] = 0
dest [27] = 2
dest [28] = 0
dest [29] = 0
dest [30] = 0
dest [31] = 0
dest [32] = 0
dest [33] = 0
dest [34] = 0
dest [35] = 0
dest [36] = 0
dest [37] = 0
dest [38] = 0
dest [39] = 0
dest [40] = 0
dest [41] = 0
dest [42] = 0
dest [43] = 0
dest [44] = 0
dest [45] = 0
dest [46] = 0
dest [47] = 0
dest [48] = 0
dest [49] = 0
dest [50] = 0
dest [51] = 0
dest [52] = 0
dest [53] = 0
dest [54] = 0
dest [55] = 0
dest [56] = 0
dest [57] = 0
dest [58] = 0
dest [59] = 0
dest [60] = 0
dest [61] = 0
dest [62] = 0
dest [63] = 0
The distribution of the dest packets of size 5 is: 

dest [0] = 0
dest [1] = 0
dest [2] = 5
dest [3] = 0
dest [4] = 0
dest [5] = 7
dest [6] = 0
dest [7] = 0
dest [8] = 0
dest [9] = 0
dest [10] = 0
dest [11] = 0
dest [12] = 0
dest [13] = 0
dest [14] = 0
dest [15] = 0
dest [16] = 4
dest [17] = 0
dest [18] = 0
dest [19] = 0
dest [20] = 0
dest [21] = 0
dest [22] = 0
dest [23] = 1
dest [24] = 0
dest [25] = 0
dest [26] = 0
dest [27] = 0
dest [28] = 0
dest [29] = 0
dest [30] = 0
dest [31] = 0
dest [32] = 0
dest [33] = 0
dest [34] = 0
dest [35] = 0
dest [36] = 0
dest [37] = 0
dest [38] = 0
dest [39] = 0
dest [40] = 10
dest [41] = 0
dest [42] = 0
dest [43] = 0
dest [44] = 0
dest [45] = 0
dest [46] = 0
dest [47] = 4
dest [48] = 0
dest [49] = 0
dest [50] = 0
dest [51] = 0
dest [52] = 0
dest [53] = 0
dest [54] = 0
dest [55] = 0
dest [56] = 0
dest [57] = 0
dest [58] = 7
dest [59] = 0
dest [60] = 0
dest [61] = 4
dest [62] = 0
dest [63] = 0Total run time 1494.52
