make: Nothing to be done for 'all'.
Master: Running timer....
Master: Running SRC....
BEGIN Configuration File: ./examples/bitrev
// Topology

topology = torus;
k = 4;
n = 2;

// Routing
routing_function = dim_order;

// Flow control
num_vcs     = 4;
vc_buf_size = 4;
wait_for_tail_credit = 0;

// Router architecture
vc_allocator = islip;
sw_allocator = islip;
alloc_iters  = 1;

credit_delay   = 1;
routing_delay  = 1;
vc_alloc_delay = 1;
sw_alloc_delay = 1;

input_speedup     = 1;
output_speedup    = 1;
internal_speedup  = 1.0;

vc_busy_when_full = 0;

// Traffic
traffic = uniform;
packet_size = 1;

// Simulation
sim_type = throughput;

injection_rate = 0.43;

END Configuration File: ./examples/bitrev
===== Time: 1000 =====
Class 0:
Minimum packet latency = 8
Average packet latency = 212.132
Maximum packet latency = 673
Minimum network latency = 9
Average network latency = 97.433
Maximum network latency = 256
Slowest packet = 299
Minimum flit latency = 9
Average flit latency = 97.433
Maximum flit latency = 256
Slowest flit = 3062
Minimum fragmentation = 0
Average fragmentation = 0
Maximum fragmentation = 0
Minimum injected packet rate = 0.181 (at node 14)
Average injected packet rate = 0.255875
Maximum injected packet rate = 0.377 (at node 5)
Minimum accepted packet rate = 0.21 (at node 4)
Average accepted packet rate = 0.230813
Maximum accepted packet rate = 0.257 (at node 8)
Minimum injected flit rate = 0.181 (at node 14)
Average injected flit rate = 0.255875
Maximum injected flit rate = 0.377 (at node 5)
Minimum accepted flit rate = 0.21 (at node 4)
Average accepted flit rate = 0.230813
Maximum accepted flit rate = 0.257 (at node 8)
Total number of injected packets = 4094
Total number of injected flits = 4094
Average injected packet length = 1
Total number of accepted packets = 3693
Total number of accepted flits = 3693
Average accepted packet length = 1
Total in-flight flits = 414 (0 measured)
===== Time: 2000 =====
Class 0:
Minimum packet latency = 8
Average packet latency = 405.803
Maximum packet latency = 1300
Minimum network latency = 9
Average network latency = 101.912
Maximum network latency = 257
Slowest packet = 299
Minimum flit latency = 9
Average flit latency = 101.912
Maximum flit latency = 257
Slowest flit = 6954
Minimum fragmentation = 0
Average fragmentation = 0
Maximum fragmentation = 0
Minimum injected packet rate = 0.174 (at node 8)
Average injected packet rate = 0.245812
Maximum injected packet rate = 0.3655 (at node 1)
Minimum accepted packet rate = 0.2175 (at node 4)
Average accepted packet rate = 0.23375
Maximum accepted packet rate = 0.2445 (at node 7)
Minimum injected flit rate = 0.174 (at node 8)
Average injected flit rate = 0.245812
Maximum injected flit rate = 0.3655 (at node 1)
Minimum accepted flit rate = 0.2175 (at node 4)
Average accepted flit rate = 0.23375
Maximum accepted flit rate = 0.2445 (at node 7)
Total number of injected packets = 7866
Total number of injected flits = 7866
Average injected packet length = 1
Total number of accepted packets = 7480
Total number of accepted flits = 7480
Average accepted packet length = 1
Total in-flight flits = 399 (0 measured)
===== Time: 3000 =====
Class 0:
Minimum packet latency = 345
Average packet latency = 1012.68
Maximum packet latency = 1934
Minimum network latency = 40
Average network latency = 107.174
Maximum network latency = 316
Slowest packet = 7358
Minimum flit latency = 40
Average flit latency = 107.174
Maximum flit latency = 316
Slowest flit = 7252
Minimum fragmentation = 0
Average fragmentation = 0
Maximum fragmentation = 0
Minimum injected packet rate = 0.16 (at node 8)
Average injected packet rate = 0.233375
Maximum injected packet rate = 0.342 (at node 1)
Minimum accepted packet rate = 0.196 (at node 4)
Average accepted packet rate = 0.232937
Maximum accepted packet rate = 0.276 (at node 11)
Minimum injected flit rate = 0.16 (at node 8)
Average injected flit rate = 0.233375
Maximum injected flit rate = 0.342 (at node 1)
Minimum accepted flit rate = 0.196 (at node 4)
Average accepted flit rate = 0.232937
Maximum accepted flit rate = 0.276 (at node 11)
Total number of injected packets = 3734
Total number of injected flits = 3734
Average injected packet length = 1
Total number of accepted packets = 3727
Total number of accepted flits = 3727
Average accepted packet length = 1
Total in-flight flits = 405 (0 measured)
===== Time: 4000 =====
Class 0:
Minimum packet latency = 580
Average packet latency = 1428.54
Maximum packet latency = 2537
Minimum network latency = 38
Average network latency = 104.671
Maximum network latency = 261
Slowest packet = 11627
Minimum flit latency = 38
Average flit latency = 106.619
Maximum flit latency = 276
Slowest flit = 10667
Minimum fragmentation = 0
Average fragmentation = 0
Maximum fragmentation = 0
Minimum injected packet rate = 0.165 (at node 13)
Average injected packet rate = 0.237125
Maximum injected packet rate = 0.335 (at node 6)
Minimum accepted packet rate = 0.211 (at node 4)
Average accepted packet rate = 0.236875
Maximum accepted packet rate = 0.252 (at node 8)
Minimum injected flit rate = 0.165 (at node 13)
Average injected flit rate = 0.237125
Maximum injected flit rate = 0.335 (at node 6)
Minimum accepted flit rate = 0.211 (at node 4)
Average accepted flit rate = 0.236875
Maximum accepted flit rate = 0.252 (at node 8)
Total number of injected packets = 3794
Total number of injected flits = 3794
Average injected packet length = 1
Total number of accepted packets = 3790
Total number of accepted flits = 3790
Average accepted packet length = 1
Total in-flight flits = 408 (408 measured)
===== Time: 5000 =====
Class 0:
Minimum packet latency = 580
Average packet latency = 1625.75
Maximum packet latency = 3145
Minimum network latency = 38
Average network latency = 104.598
Maximum network latency = 317
Slowest packet = 11627
Minimum flit latency = 38
Average flit latency = 105.572
Maximum flit latency = 317
Slowest flit = 15348
Minimum fragmentation = 0
Average fragmentation = 0
Maximum fragmentation = 0
Minimum injected packet rate = 0.1575 (at node 8)
Average injected packet rate = 0.237781
Maximum injected packet rate = 0.3405 (at node 2)
Minimum accepted packet rate = 0.209 (at node 4)
Average accepted packet rate = 0.237625
Maximum accepted packet rate = 0.251 (at node 6)
Minimum injected flit rate = 0.1575 (at node 8)
Average injected flit rate = 0.237781
Maximum injected flit rate = 0.3405 (at node 2)
Minimum accepted flit rate = 0.209 (at node 4)
Average accepted flit rate = 0.237625
Maximum accepted flit rate = 0.251 (at node 6)
Total number of injected packets = 7609
Total number of injected flits = 7609
Average injected packet length = 1
Total number of accepted packets = 7604
Total number of accepted flits = 7604
Average accepted packet length = 1
Total in-flight flits = 410 (410 measured)
===== Time: 6000 =====
Class 0:
Minimum packet latency = 580
Average packet latency = 1834.29
Maximum packet latency = 3802
Minimum network latency = 38
Average network latency = 105.537
Maximum network latency = 317
Slowest packet = 11627
Minimum flit latency = 38
Average flit latency = 106.159
Maximum flit latency = 317
Slowest flit = 15348
Minimum fragmentation = 0
Average fragmentation = 0
Maximum fragmentation = 0
Minimum injected packet rate = 0.160333 (at node 8)
Average injected packet rate = 0.235813
Maximum injected packet rate = 0.33 (at node 6)
Minimum accepted packet rate = 0.209 (at node 4)
Average accepted packet rate = 0.235479
Maximum accepted packet rate = 0.249667 (at node 8)
Minimum injected flit rate = 0.160333 (at node 8)
Average injected flit rate = 0.235813
Maximum injected flit rate = 0.33 (at node 6)
Minimum accepted flit rate = 0.209 (at node 4)
Average accepted flit rate = 0.235479
Maximum accepted flit rate = 0.249667 (at node 8)
Total number of injected packets = 11319
Total number of injected flits = 11319
Average injected packet length = 1
Total number of accepted packets = 11303
Total number of accepted flits = 11303
Average accepted packet length = 1
Total in-flight flits = 425 (425 measured)
Draining remaining packets ...
Class 0:
Remaining flits: 22308 22335 22340 22385 22398 22404 22407 22418 22420 22437 [...] (390 flits)
Measured flits: 22308 22335 22340 22385 22398 22404 22407 22418 22420 22437 [...] (390 flits)
Class 0:
Remaining flits: 22340 22385 22398 22420 22437 22438 22455 22464 22468 22472 [...] (349 flits)
Measured flits: 22340 22385 22398 22420 22437 22438 22455 22464 22468 22472 [...] (349 flits)
Class 0:
Remaining flits: 22340 22398 22420 22437 22438 22455 22472 22487 22527 22535 [...] (311 flits)
Measured flits: 22340 22398 22420 22437 22438 22455 22472 22487 22527 22535 [...] (311 flits)
Class 0:
Remaining flits: 22398 22420 22472 22527 22535 22536 22553 22554 22556 22561 [...] (271 flits)
Measured flits: 22398 22420 22472 22527 22535 22536 22553 22554 22556 22561 [...] (271 flits)
Class 0:
Remaining flits: 22472 22527 22553 22554 22556 22561 22563 22579 22593 22598 [...] (233 flits)
Measured flits: 22472 22527 22553 22554 22556 22561 22563 22579 22593 22598 [...] (233 flits)
Class 0:
Remaining flits: 22472 22527 22553 22554 22563 22593 22598 22599 22610 22622 [...] (199 flits)
Measured flits: 22472 22527 22553 22554 22563 22593 22598 22599 22610 22622 [...] (199 flits)
Class 0:
Remaining flits: 22472 22527 22553 22554 22563 22593 22632 22648 22664 22667 [...] (170 flits)
Measured flits: 22472 22527 22553 22554 22563 22593 22632 22648 22664 22667 [...] (170 flits)
Class 0:
Remaining flits: 22554 22563 22632 22667 22675 22680 22681 22689 22696 22702 [...] (138 flits)
Measured flits: 22554 22563 22632 22667 22675 22680 22681 22689 22696 22702 [...] (138 flits)
Class 0:
Remaining flits: 22563 22675 22680 22681 22702 22706 22709 22717 22718 22734 [...] (109 flits)
Measured flits: 22563 22675 22680 22681 22702 22706 22709 22717 22718 22734 [...] (109 flits)
Class 0:
Remaining flits: 22563 22702 22709 22717 22734 22769 22779 22785 22791 22795 [...] (81 flits)
Measured flits: 22563 22702 22709 22717 22734 22769 22779 22785 22791 22795 [...] (81 flits)
Class 0:
Remaining flits: 22563 22709 22734 22769 22785 22795 22812 22824 22831 22839 [...] (59 flits)
Measured flits: 22563 22709 22734 22769 22785 22795 22812 22824 22831 22839 [...] (59 flits)
Class 0:
Remaining flits: 22563 22824 22831 22839 22841 22842 22843 22846 22850 22852 [...] (39 flits)
Measured flits: 22563 22824 22831 22839 22841 22842 22843 22846 22850 22852 [...] (39 flits)
Class 0:
Remaining flits: 22824 22839 22841 22853 22859 22861 22864 22882 22890 22898 [...] (21 flits)
Measured flits: 22824 22839 22841 22853 22859 22861 22864 22882 22890 22898 [...] (21 flits)
Class 0:
Remaining flits: 22841 22861 22882 22890 22898 22912 22915 22921 22924 22928 [...] (12 flits)
Measured flits: 22841 22861 22882 22890 22898 22912 22915 22921 22924 22928 [...] (12 flits)
Class 0:
Remaining flits: 22841 22861 22928 22933 (4 flits)
Measured flits: 22841 22861 22928 22933 (4 flits)
Class 0:
Remaining flits: 22861 22928 22933 (3 flits)
Measured flits: 22861 22928 22933 (3 flits)
Class 0:
Remaining flits: 22861 22928 22933 (3 flits)
Measured flits: 22861 22928 22933 (3 flits)
Class 0:
Remaining flits: 22861 22928 22933 (3 flits)
Measured flits: 22861 22928 22933 (3 flits)
Class 0:
Remaining flits: 22861 22928 22933 (3 flits)
Measured flits: 22861 22928 22933 (3 flits)
Class 0:
Remaining flits: 22861 22928 22933 (3 flits)
Measured flits: 22861 22928 22933 (3 flits)
Class 0:
Remaining flits: 22861 22928 22933 (3 flits)
Measured flits: 22861 22928 22933 (3 flits)
Class 0:
Remaining flits: 22861 22928 22933 (3 flits)
Measured flits: 22861 22928 22933 (3 flits)
Class 0:
Remaining flits: 22861 22928 22933 (3 flits)
Measured flits: 22861 22928 22933 (3 flits)
Class 0:
Remaining flits: 22861 22928 22933 (3 flits)
Measured flits: 22861 22928 22933 (3 flits)
Class 0:
Remaining flits: 22861 22928 22933 (3 flits)
Measured flits: 22861 22928 22933 (3 flits)
Class 0:
Remaining flits: 22861 22928 22933 (3 flits)
Measured flits: 22861 22928 22933 (3 flits)
Class 0:
Remaining flits: 22861 22928 22933 (3 flits)
Measured flits: 22861 22928 22933 (3 flits)
Class 0:
Remaining flits: 22861 22928 22933 (3 flits)
Measured flits: 22861 22928 22933 (3 flits)
Class 0:
Remaining flits: 22861 22928 22933 (3 flits)
Measured flits: 22861 22928 22933 (3 flits)
Class 0:
Remaining flits: 22861 22928 22933 (3 flits)
Measured flits: 22861 22928 22933 (3 flits)
Class 0:
Remaining flits: 22861 22928 22933 (3 flits)
Measured flits: 22861 22928 22933 (3 flits)
Class 0:
Remaining flits: 22861 22928 22933 (3 flits)
Measured flits: 22861 22928 22933 (3 flits)
Class 0:
Remaining flits: 22861 22928 22933 (3 flits)
Measured flits: 22861 22928 22933 (3 flits)
Class 0:
Remaining flits: 22861 22928 22933 (3 flits)
Measured flits: 22861 22928 22933 (3 flits)
Class 0:
Remaining flits: 22861 22928 22933 (3 flits)
Measured flits: 22861 22928 22933 (3 flits)
Class 0:
Remaining flits: 22861 22928 22933 (3 flits)
Measured flits: 22861 22928 22933 (3 flits)
Class 0:
Remaining flits: 22861 22928 22933 (3 flits)
Measured flits: 22861 22928 22933 (3 flits)
Class 0:
Remaining flits: 22861 22928 22933 (3 flits)
Measured flits: 22861 22928 22933 (3 flits)
Class 0:
Remaining flits: 22861 22928 22933 (3 flits)
Measured flits: 22861 22928 22933 (3 flits)
Class 0:
Remaining flits: 22861 22928 22933 (3 flits)
Measured flits: 22861 22928 22933 (3 flits)
Class 0:
Remaining flits: 22861 22928 22933 (3 flits)
Measured flits: 22861 22928 22933 (3 flits)
Class 0:
Remaining flits: 22861 22928 22933 (3 flits)
Measured flits: 22861 22928 22933 (3 flits)
Class 0:
Remaining flits: 22861 22928 22933 (3 flits)
Measured flits: 22861 22928 22933 (3 flits)
Class 0:
Remaining flits: 22861 22928 22933 (3 flits)
Measured flits: 22861 22928 22933 (3 flits)
Class 0:
Remaining flits: 22861 22928 22933 (3 flits)
Measured flits: 22861 22928 22933 (3 flits)
Class 0:
Remaining flits: 22861 22928 22933 (3 flits)
Measured flits: 22861 22928 22933 (3 flits)
Class 0:
Remaining flits: 22861 22928 22933 (3 flits)
Measured flits: 22861 22928 22933 (3 flits)
Class 0:
Remaining flits: 22861 22928 22933 (3 flits)
Measured flits: 22861 22928 22933 (3 flits)
Class 0:
Remaining flits: 22861 22928 22933 (3 flits)
Measured flits: 22861 22928 22933 (3 flits)
Class 0:
Remaining flits: 22861 22928 22933 (3 flits)
Measured flits: 22861 22928 22933 (3 flits)
Class 0:
Remaining flits: 22861 22928 22933 (3 flits)
Measured flits: 22861 22928 22933 (3 flits)
Class 0:
Remaining flits: 22861 22928 22933 (3 flits)
Measured flits: 22861 22928 22933 (3 flits)
Class 0:
Remaining flits: 22861 22928 22933 (3 flits)
Measured flits: 22861 22928 22933 (3 flits)
Class 0:
Remaining flits: 22861 22928 22933 (3 flits)
Measured flits: 22861 22928 22933 (3 flits)
Class 0:
Remaining flits: 22861 22928 22933 (3 flits)
Measured flits: 22861 22928 22933 (3 flits)
Class 0:
Remaining flits: 22861 22928 22933 (3 flits)
Measured flits: 22861 22928 22933 (3 flits)
Class 0:
Remaining flits: 22861 22928 22933 (3 flits)
Measured flits: 22861 22928 22933 (3 flits)
Class 0:
Remaining flits: 22861 22928 22933 (3 flits)
Measured flits: 22861 22928 22933 (3 flits)
Class 0:
Remaining flits: 22861 22928 22933 (3 flits)
Measured flits: 22861 22928 22933 (3 flits)
Class 0:
Remaining flits: 22861 22928 22933 (3 flits)
Measured flits: 22861 22928 22933 (3 flits)
Class 0:
Remaining flits: 22861 22928 22933 (3 flits)
Measured flits: 22861 22928 22933 (3 flits)
Class 0:
Remaining flits: 22861 22928 22933 (3 flits)
Measured flits: 22861 22928 22933 (3 flits)
Class 0:
Remaining flits: 22861 22928 22933 (3 flits)
Measured flits: 22861 22928 22933 (3 flits)
Class 0:
Remaining flits: 22861 22928 22933 (3 flits)
Measured flits: 22861 22928 22933 (3 flits)
Class 0:
Remaining flits: 22861 22928 22933 (3 flits)
Measured flits: 22861 22928 22933 (3 flits)
Class 0:
Remaining flits: 22861 22928 22933 (3 flits)
Measured flits: 22861 22928 22933 (3 flits)
Class 0:
Remaining flits: 22861 22928 22933 (3 flits)
Measured flits: 22861 22928 22933 (3 flits)
Class 0:
Remaining flits: 22861 22928 22933 (3 flits)
Measured flits: 22861 22928 22933 (3 flits)
Class 0:
Remaining flits: 22861 22928 22933 (3 flits)
Measured flits: 22861 22928 22933 (3 flits)
Class 0:
Remaining flits: 22861 22928 22933 (3 flits)
Measured flits: 22861 22928 22933 (3 flits)
Class 0:
Remaining flits: 22861 22928 22933 (3 flits)
Measured flits: 22861 22928 22933 (3 flits)
Class 0:
Remaining flits: 22861 22928 22933 (3 flits)
Measured flits: 22861 22928 22933 (3 flits)
Class 0:
Remaining flits: 22861 22928 22933 (3 flits)
Measured flits: 22861 22928 22933 (3 flits)
Class 0:
Remaining flits: 22861 22928 22933 (3 flits)
Measured flits: 22861 22928 22933 (3 flits)
Class 0:
Remaining flits: 22861 22928 22933 (3 flits)
Measured flits: 22861 22928 22933 (3 flits)
Class 0:
Remaining flits: 22861 22928 22933 (3 flits)
Measured flits: 22861 22928 22933 (3 flits)
Class 0:
Remaining flits: 22861 22928 22933 (3 flits)
Measured flits: 22861 22928 22933 (3 flits)
Class 0:
Remaining flits: 22861 22928 22933 (3 flits)
Measured flits: 22861 22928 22933 (3 flits)
Class 0:
Remaining flits: 22861 22928 22933 (3 flits)
Measured flits: 22861 22928 22933 (3 flits)
Class 0:
Remaining flits: 22861 22928 22933 (3 flits)
Measured flits: 22861 22928 22933 (3 flits)
Class 0:
Remaining flits: 22861 22928 22933 (3 flits)
Measured flits: 22861 22928 22933 (3 flits)
Class 0:
Remaining flits: 22861 22928 22933 (3 flits)
Measured flits: 22861 22928 22933 (3 flits)
Class 0:
Remaining flits: 22861 22928 22933 (3 flits)
Measured flits: 22861 22928 22933 (3 flits)
Class 0:
Remaining flits: 22861 22928 22933 (3 flits)
Measured flits: 22861 22928 22933 (3 flits)
Class 0:
Remaining flits: 22861 22928 22933 (3 flits)
Measured flits: 22861 22928 22933 (3 flits)
Class 0:
Remaining flits: 22861 22928 22933 (3 flits)
Measured flits: 22861 22928 22933 (3 flits)
Class 0:
Remaining flits: 22861 22928 22933 (3 flits)
Measured flits: 22861 22928 22933 (3 flits)
Class 0:
Remaining flits: 22861 22928 22933 (3 flits)
Measured flits: 22861 22928 22933 (3 flits)
Class 0:
Remaining flits: 22861 22928 22933 (3 flits)
Measured flits: 22861 22928 22933 (3 flits)
Class 0:
Remaining flits: 22861 22928 22933 (3 flits)
Measured flits: 22861 22928 22933 (3 flits)
Class 0:
Remaining flits: 22861 22928 22933 (3 flits)
Measured flits: 22861 22928 22933 (3 flits)
Class 0:
Remaining flits: 22861 22928 22933 (3 flits)
Measured flits: 22861 22928 22933 (3 flits)
Class 0:
Remaining flits: 22861 22928 22933 (3 flits)
Measured flits: 22861 22928 22933 (3 flits)
Class 0:
Remaining flits: 22861 22928 22933 (3 flits)
Measured flits: 22861 22928 22933 (3 flits)
Class 0:
Remaining flits: 22861 22928 22933 (3 flits)
Measured flits: 22861 22928 22933 (3 flits)
Class 0:
Remaining flits: 22861 22928 22933 (3 flits)
Measured flits: 22861 22928 22933 (3 flits)
Class 0:
Remaining flits: 22861 22928 22933 (3 flits)
Measured flits: 22861 22928 22933 (3 flits)
Class 0:
Remaining flits: 22861 22928 22933 (3 flits)
Measured flits: 22861 22928 22933 (3 flits)
Class 0:
Remaining flits: 22861 22928 22933 (3 flits)
Measured flits: 22861 22928 22933 (3 flits)
Class 0:
Remaining flits: 22861 22928 22933 (3 flits)
Measured flits: 22861 22928 22933 (3 flits)
Class 0:
Remaining flits: 22861 22928 22933 (3 flits)
Measured flits: 22861 22928 22933 (3 flits)
Time taken is 7000 cycles
====== Traffic class 0 ======

Total number of flits generated = 22935, changed lanes = 22468
Overall minimum packet latency = 580 (1 samples)
Overall average packet latency = 1861.23 (1 samples)
Overall maximum packet latency = 3871 (1 samples)
Overall minimum network latency = 38 (1 samples)
Overall average network latency = 106.154 (1 samples)
Overall maximum network latency = 317 (1 samples)
Overall minimum flit latency = 38 (1 samples)
Overall average flit latency = 106.732 (1 samples)
Overall maximum flit latency = 317 (1 samples)
Overall minimum fragmentation = 0 (1 samples)
Overall average fragmentation = 0 (1 samples)
Overall maximum fragmentation = 0 (1 samples)
Overall minimum injected packet rate = 0.160333 (1 samples)
Overall average injected packet rate = 0.235813 (1 samples)
Overall maximum injected packet rate = 0.33 (1 samples)
Overall minimum accepted packet rate = 0.209 (1 samples)
Overall average accepted packet rate = 0.235479 (1 samples)
Overall maximum accepted packet rate = 0.249667 (1 samples)
Overall minimum injected flit rate = 0.160333 (1 samples)
Overall average injected flit rate = 0.235813 (1 samples)
Overall maximum injected flit rate = 0.33 (1 samples)
Overall minimum accepted flit rate = 0.209 (1 samples)
Overall average accepted flit rate = 0.235479 (1 samples)
Overall maximum accepted flit rate = 0.249667 (1 samples)
Overall average injected packet size = 1 (1 samples)
Overall average accepted packet size = 1 (1 samples)
Overall average hops = 3.01352 (1 samples)
Overall throughput of the network (flits/cycle) = 7.644
Overall throughput of the network (packets/cycle) = 7.644
Total run time 9114.95
