make: Nothing to be done for 'all'.
Master: Running timer....
Master: Running SRC....
BEGIN Configuration File: ./examples/bitrev
// Topology

topology = torus;
k = 4;
n = 2;

// Routing
routing_function = dim_order;

// Flow control
num_vcs     = 4;
vc_buf_size = 4;
wait_for_tail_credit = 0;

// Router architecture
vc_allocator = islip;
sw_allocator = islip;
alloc_iters  = 1;

credit_delay   = 1;
routing_delay  = 1;
vc_alloc_delay = 1;
sw_alloc_delay = 1;

input_speedup     = 1;
output_speedup    = 1;
internal_speedup  = 1.0;

vc_busy_when_full = 0;

// Traffic
traffic = uniform;
packet_size = 1;

// Simulation
sim_type = throughput;

injection_rate = 0.23;

END Configuration File: ./examples/bitrev
===== Time: 1000 =====
Class 0:
Minimum packet latency = 7
Average packet latency = 82.5276
Maximum packet latency = 369
Minimum network latency = 8
Average network latency = 61.1752
Maximum network latency = 163
Slowest packet = 581
Minimum flit latency = 8
Average flit latency = 61.1752
Maximum flit latency = 163
Slowest flit = 2196
Minimum fragmentation = 0
Average fragmentation = 0
Maximum fragmentation = 0
Minimum injected packet rate = 0.178 (at node 11)
Average injected packet rate = 0.20025
Maximum injected packet rate = 0.235 (at node 6)
Minimum accepted packet rate = 0.167 (at node 4)
Average accepted packet rate = 0.186562
Maximum accepted packet rate = 0.216 (at node 15)
Minimum injected flit rate = 0.178 (at node 11)
Average injected flit rate = 0.20025
Maximum injected flit rate = 0.235 (at node 6)
Minimum accepted flit rate = 0.167 (at node 4)
Average accepted flit rate = 0.186562
Maximum accepted flit rate = 0.216 (at node 15)
Total number of injected packets = 3204
Total number of injected flits = 3204
Average injected packet length = 1
Total number of accepted packets = 2985
Total number of accepted flits = 2985
Average accepted packet length = 1
Total in-flight flits = 226 (0 measured)
===== Time: 2000 =====
Class 0:
Minimum packet latency = 7
Average packet latency = 145.511
Maximum packet latency = 698
Minimum network latency = 8
Average network latency = 66.2343
Maximum network latency = 174
Slowest packet = 581
Minimum flit latency = 8
Average flit latency = 66.2343
Maximum flit latency = 174
Slowest flit = 3464
Minimum fragmentation = 0
Average fragmentation = 0
Maximum fragmentation = 0
Minimum injected packet rate = 0.1725 (at node 11)
Average injected packet rate = 0.196219
Maximum injected packet rate = 0.2325 (at node 6)
Minimum accepted packet rate = 0.164 (at node 4)
Average accepted packet rate = 0.189125
Maximum accepted packet rate = 0.203 (at node 0)
Minimum injected flit rate = 0.1725 (at node 11)
Average injected flit rate = 0.196219
Maximum injected flit rate = 0.2325 (at node 6)
Minimum accepted flit rate = 0.164 (at node 4)
Average accepted flit rate = 0.189125
Maximum accepted flit rate = 0.203 (at node 0)
Total number of injected packets = 6279
Total number of injected flits = 6279
Average injected packet length = 1
Total number of accepted packets = 6052
Total number of accepted flits = 6052
Average accepted packet length = 1
Total in-flight flits = 232 (0 measured)
===== Time: 3000 =====
Class 0:
Minimum packet latency = 7
Average packet latency = 312.756
Maximum packet latency = 904
Minimum network latency = 8
Average network latency = 71.0347
Maximum network latency = 184
Slowest packet = 5853
Minimum flit latency = 8
Average flit latency = 71.0347
Maximum flit latency = 184
Slowest flit = 7270
Minimum fragmentation = 0
Average fragmentation = 0
Maximum fragmentation = 0
Minimum injected packet rate = 0.166 (at node 8)
Average injected packet rate = 0.197875
Maximum injected packet rate = 0.257 (at node 6)
Minimum accepted packet rate = 0.179 (at node 6)
Average accepted packet rate = 0.198
Maximum accepted packet rate = 0.233 (at node 8)
Minimum injected flit rate = 0.166 (at node 8)
Average injected flit rate = 0.197875
Maximum injected flit rate = 0.257 (at node 6)
Minimum accepted flit rate = 0.179 (at node 6)
Average accepted flit rate = 0.198
Maximum accepted flit rate = 0.233 (at node 8)
Total number of injected packets = 3166
Total number of injected flits = 3166
Average injected packet length = 1
Total number of accepted packets = 3168
Total number of accepted flits = 3168
Average accepted packet length = 1
Total in-flight flits = 231 (0 measured)
===== Time: 4000 =====
Class 0:
Minimum packet latency = 7
Average packet latency = 414.264
Maximum packet latency = 1225
Minimum network latency = 8
Average network latency = 69.7714
Maximum network latency = 194
Slowest packet = 9453
Minimum flit latency = 8
Average flit latency = 72.2378
Maximum flit latency = 194
Slowest flit = 11862
Minimum fragmentation = 0
Average fragmentation = 0
Maximum fragmentation = 0
Minimum injected packet rate = 0.166 (at node 9)
Average injected packet rate = 0.1985
Maximum injected packet rate = 0.251 (at node 3)
Minimum accepted packet rate = 0.164 (at node 7)
Average accepted packet rate = 0.197875
Maximum accepted packet rate = 0.215 (at node 9)
Minimum injected flit rate = 0.166 (at node 9)
Average injected flit rate = 0.1985
Maximum injected flit rate = 0.251 (at node 3)
Minimum accepted flit rate = 0.164 (at node 7)
Average accepted flit rate = 0.197875
Maximum accepted flit rate = 0.215 (at node 9)
Total number of injected packets = 3176
Total number of injected flits = 3176
Average injected packet length = 1
Total number of accepted packets = 3166
Total number of accepted flits = 3166
Average accepted packet length = 1
Total in-flight flits = 243 (243 measured)
===== Time: 5000 =====
Class 0:
Minimum packet latency = 7
Average packet latency = 482.731
Maximum packet latency = 1563
Minimum network latency = 8
Average network latency = 70.7095
Maximum network latency = 194
Slowest packet = 9453
Minimum flit latency = 8
Average flit latency = 71.9075
Maximum flit latency = 194
Slowest flit = 11862
Minimum fragmentation = 0
Average fragmentation = 0
Maximum fragmentation = 0
Minimum injected packet rate = 0.166 (at node 12)
Average injected packet rate = 0.197781
Maximum injected packet rate = 0.2345 (at node 0)
Minimum accepted packet rate = 0.177 (at node 13)
Average accepted packet rate = 0.198031
Maximum accepted packet rate = 0.2125 (at node 9)
Minimum injected flit rate = 0.166 (at node 12)
Average injected flit rate = 0.197781
Maximum injected flit rate = 0.2345 (at node 0)
Minimum accepted flit rate = 0.177 (at node 13)
Average accepted flit rate = 0.198031
Maximum accepted flit rate = 0.2125 (at node 9)
Total number of injected packets = 6329
Total number of injected flits = 6329
Average injected packet length = 1
Total number of accepted packets = 6337
Total number of accepted flits = 6337
Average accepted packet length = 1
Total in-flight flits = 225 (225 measured)
===== Time: 6000 =====
Class 0:
Minimum packet latency = 7
Average packet latency = 540.01
Maximum packet latency = 1929
Minimum network latency = 8
Average network latency = 70.9281
Maximum network latency = 194
Slowest packet = 9453
Minimum flit latency = 8
Average flit latency = 71.7203
Maximum flit latency = 194
Slowest flit = 11862
Minimum fragmentation = 0
Average fragmentation = 0
Maximum fragmentation = 0
Minimum injected packet rate = 0.166 (at node 12)
Average injected packet rate = 0.198437
Maximum injected packet rate = 0.237 (at node 3)
Minimum accepted packet rate = 0.178667 (at node 4)
Average accepted packet rate = 0.198313
Maximum accepted packet rate = 0.214333 (at node 10)
Minimum injected flit rate = 0.166 (at node 12)
Average injected flit rate = 0.198437
Maximum injected flit rate = 0.237 (at node 3)
Minimum accepted flit rate = 0.178667 (at node 4)
Average accepted flit rate = 0.198313
Maximum accepted flit rate = 0.214333 (at node 10)
Total number of injected packets = 9525
Total number of injected flits = 9525
Average injected packet length = 1
Total number of accepted packets = 9519
Total number of accepted flits = 9519
Average accepted packet length = 1
Total in-flight flits = 236 (236 measured)
Draining remaining packets ...
Class 0:
Remaining flits: 18553 18591 18592 18593 18597 18599 18606 18614 18615 18619 [...] (204 flits)
Measured flits: 18553 18591 18592 18593 18597 18599 18606 18614 18615 18619 [...] (204 flits)
Class 0:
Remaining flits: 18599 18614 18619 18622 18628 18630 18635 18636 18640 18642 [...] (172 flits)
Measured flits: 18599 18614 18619 18622 18628 18630 18635 18636 18640 18642 [...] (172 flits)
Class 0:
Remaining flits: 18599 18628 18630 18636 18642 18648 18656 18664 18670 18675 [...] (146 flits)
Measured flits: 18599 18628 18630 18636 18642 18648 18656 18664 18670 18675 [...] (146 flits)
Class 0:
Remaining flits: 18648 18656 18664 18687 18693 18695 18698 18699 18701 18704 [...] (125 flits)
Measured flits: 18648 18656 18664 18687 18693 18695 18698 18699 18701 18704 [...] (125 flits)
Class 0:
Remaining flits: 18648 18693 18695 18699 18721 18724 18727 18728 18729 18734 [...] (105 flits)
Measured flits: 18648 18693 18695 18699 18721 18724 18727 18728 18729 18734 [...] (105 flits)
Class 0:
Remaining flits: 18699 18727 18728 18735 18743 18748 18749 18758 18762 18770 [...] (93 flits)
Measured flits: 18699 18727 18728 18735 18743 18748 18749 18758 18762 18770 [...] (93 flits)
Class 0:
Remaining flits: 18728 18749 18758 18762 18771 18775 18780 18781 18790 18791 [...] (83 flits)
Measured flits: 18728 18749 18758 18762 18771 18775 18780 18781 18790 18791 [...] (83 flits)
Class 0:
Remaining flits: 18728 18781 18805 18809 18810 18820 18825 18827 18832 18836 [...] (69 flits)
Measured flits: 18728 18781 18805 18809 18810 18820 18825 18827 18832 18836 [...] (69 flits)
Class 0:
Remaining flits: 18809 18810 18825 18832 18841 18842 18843 18844 18847 18850 [...] (58 flits)
Measured flits: 18809 18810 18825 18832 18841 18842 18843 18844 18847 18850 [...] (58 flits)
Class 0:
Remaining flits: 18825 18832 18841 18842 18850 18858 18863 18887 18890 18891 [...] (40 flits)
Measured flits: 18825 18832 18841 18842 18850 18858 18863 18887 18890 18891 [...] (40 flits)
Class 0:
Remaining flits: 18858 18863 18890 18891 18899 18917 18918 18919 18920 18922 [...] (26 flits)
Measured flits: 18858 18863 18890 18891 18899 18917 18918 18919 18920 18922 [...] (26 flits)
Class 0:
Remaining flits: 18858 18863 18890 18917 18918 18919 18920 18939 18942 18951 [...] (18 flits)
Measured flits: 18858 18863 18890 18917 18918 18919 18920 18939 18942 18951 [...] (18 flits)
Class 0:
Remaining flits: 18917 18920 18939 18942 18953 18955 18959 18960 18961 18966 [...] (11 flits)
Measured flits: 18917 18920 18939 18942 18953 18955 18959 18960 18961 18966 [...] (11 flits)
Class 0:
Remaining flits: 18917 18920 18959 18960 18961 18972 (6 flits)
Measured flits: 18917 18920 18959 18960 18961 18972 (6 flits)
Class 0:
Remaining flits: 18917 18959 18960 18961 18972 (5 flits)
Measured flits: 18917 18959 18960 18961 18972 (5 flits)
Class 0:
Remaining flits: 18917 18959 18960 18961 18972 (5 flits)
Measured flits: 18917 18959 18960 18961 18972 (5 flits)
Class 0:
Remaining flits: 18917 18959 18960 18961 18972 (5 flits)
Measured flits: 18917 18959 18960 18961 18972 (5 flits)
Class 0:
Remaining flits: 18917 18959 18960 18961 18972 (5 flits)
Measured flits: 18917 18959 18960 18961 18972 (5 flits)
Class 0:
Remaining flits: 18917 18959 18960 18961 18972 (5 flits)
Measured flits: 18917 18959 18960 18961 18972 (5 flits)
Class 0:
Remaining flits: 18917 18959 18960 18961 18972 (5 flits)
Measured flits: 18917 18959 18960 18961 18972 (5 flits)
Class 0:
Remaining flits: 18917 18959 18960 18961 18972 (5 flits)
Measured flits: 18917 18959 18960 18961 18972 (5 flits)
Class 0:
Remaining flits: 18917 18959 18960 18961 18972 (5 flits)
Measured flits: 18917 18959 18960 18961 18972 (5 flits)
Class 0:
Remaining flits: 18917 18959 18960 18961 18972 (5 flits)
Measured flits: 18917 18959 18960 18961 18972 (5 flits)
Class 0:
Remaining flits: 18917 18959 18960 18961 18972 (5 flits)
Measured flits: 18917 18959 18960 18961 18972 (5 flits)
Class 0:
Remaining flits: 18917 18959 18960 18961 18972 (5 flits)
Measured flits: 18917 18959 18960 18961 18972 (5 flits)
Class 0:
Remaining flits: 18917 18959 18960 18961 18972 (5 flits)
Measured flits: 18917 18959 18960 18961 18972 (5 flits)
Class 0:
Remaining flits: 18917 18959 18960 18961 18972 (5 flits)
Measured flits: 18917 18959 18960 18961 18972 (5 flits)
Class 0:
Remaining flits: 18917 18959 18960 18961 18972 (5 flits)
Measured flits: 18917 18959 18960 18961 18972 (5 flits)
Class 0:
Remaining flits: 18917 18959 18960 18961 18972 (5 flits)
Measured flits: 18917 18959 18960 18961 18972 (5 flits)
Class 0:
Remaining flits: 18917 18959 18960 18961 18972 (5 flits)
Measured flits: 18917 18959 18960 18961 18972 (5 flits)
Class 0:
Remaining flits: 18917 18959 18960 18961 18972 (5 flits)
Measured flits: 18917 18959 18960 18961 18972 (5 flits)
Class 0:
Remaining flits: 18917 18959 18960 18961 18972 (5 flits)
Measured flits: 18917 18959 18960 18961 18972 (5 flits)
Class 0:
Remaining flits: 18917 18959 18960 18961 18972 (5 flits)
Measured flits: 18917 18959 18960 18961 18972 (5 flits)
Class 0:
Remaining flits: 18917 18959 18960 18961 18972 (5 flits)
Measured flits: 18917 18959 18960 18961 18972 (5 flits)
Class 0:
Remaining flits: 18917 18959 18960 18961 18972 (5 flits)
Measured flits: 18917 18959 18960 18961 18972 (5 flits)
Class 0:
Remaining flits: 18917 18959 18960 18961 18972 (5 flits)
Measured flits: 18917 18959 18960 18961 18972 (5 flits)
Class 0:
Remaining flits: 18917 18959 18960 18961 18972 (5 flits)
Measured flits: 18917 18959 18960 18961 18972 (5 flits)
Class 0:
Remaining flits: 18917 18959 18960 18961 18972 (5 flits)
Measured flits: 18917 18959 18960 18961 18972 (5 flits)
Class 0:
Remaining flits: 18917 18959 18960 18961 18972 (5 flits)
Measured flits: 18917 18959 18960 18961 18972 (5 flits)
Class 0:
Remaining flits: 18917 18959 18960 18961 18972 (5 flits)
Measured flits: 18917 18959 18960 18961 18972 (5 flits)
Class 0:
Remaining flits: 18917 18959 18960 18961 18972 (5 flits)
Measured flits: 18917 18959 18960 18961 18972 (5 flits)
Class 0:
Remaining flits: 18917 18959 18960 18961 18972 (5 flits)
Measured flits: 18917 18959 18960 18961 18972 (5 flits)
Class 0:
Remaining flits: 18917 18959 18960 18961 18972 (5 flits)
Measured flits: 18917 18959 18960 18961 18972 (5 flits)
Class 0:
Remaining flits: 18917 18959 18960 18961 18972 (5 flits)
Measured flits: 18917 18959 18960 18961 18972 (5 flits)
Class 0:
Remaining flits: 18917 18959 18960 18961 18972 (5 flits)
Measured flits: 18917 18959 18960 18961 18972 (5 flits)
Class 0:
Remaining flits: 18917 18959 18960 18961 18972 (5 flits)
Measured flits: 18917 18959 18960 18961 18972 (5 flits)
Class 0:
Remaining flits: 18917 18959 18960 18961 18972 (5 flits)
Measured flits: 18917 18959 18960 18961 18972 (5 flits)
Class 0:
Remaining flits: 18917 18959 18960 18961 18972 (5 flits)
Measured flits: 18917 18959 18960 18961 18972 (5 flits)
Class 0:
Remaining flits: 18917 18959 18960 18961 18972 (5 flits)
Measured flits: 18917 18959 18960 18961 18972 (5 flits)
Class 0:
Remaining flits: 18917 18959 18960 18961 18972 (5 flits)
Measured flits: 18917 18959 18960 18961 18972 (5 flits)
Class 0:
Remaining flits: 18917 18959 18960 18961 18972 (5 flits)
Measured flits: 18917 18959 18960 18961 18972 (5 flits)
Class 0:
Remaining flits: 18917 18959 18960 18961 18972 (5 flits)
Measured flits: 18917 18959 18960 18961 18972 (5 flits)
Class 0:
Remaining flits: 18917 18959 18960 18961 18972 (5 flits)
Measured flits: 18917 18959 18960 18961 18972 (5 flits)
Class 0:
Remaining flits: 18917 18959 18960 18961 18972 (5 flits)
Measured flits: 18917 18959 18960 18961 18972 (5 flits)
Class 0:
Remaining flits: 18917 18959 18960 18961 18972 (5 flits)
Measured flits: 18917 18959 18960 18961 18972 (5 flits)
Class 0:
Remaining flits: 18917 18959 18960 18961 18972 (5 flits)
Measured flits: 18917 18959 18960 18961 18972 (5 flits)
Class 0:
Remaining flits: 18917 18959 18960 18961 18972 (5 flits)
Measured flits: 18917 18959 18960 18961 18972 (5 flits)
Class 0:
Remaining flits: 18917 18959 18960 18961 18972 (5 flits)
Measured flits: 18917 18959 18960 18961 18972 (5 flits)
Class 0:
Remaining flits: 18917 18959 18960 18961 18972 (5 flits)
Measured flits: 18917 18959 18960 18961 18972 (5 flits)
Class 0:
Remaining flits: 18917 18959 18960 18961 18972 (5 flits)
Measured flits: 18917 18959 18960 18961 18972 (5 flits)
Class 0:
Remaining flits: 18917 18959 18960 18961 18972 (5 flits)
Measured flits: 18917 18959 18960 18961 18972 (5 flits)
Class 0:
Remaining flits: 18917 18959 18960 18961 18972 (5 flits)
Measured flits: 18917 18959 18960 18961 18972 (5 flits)
Class 0:
Remaining flits: 18917 18959 18960 18961 18972 (5 flits)
Measured flits: 18917 18959 18960 18961 18972 (5 flits)
Class 0:
Remaining flits: 18917 18959 18960 18961 18972 (5 flits)
Measured flits: 18917 18959 18960 18961 18972 (5 flits)
Class 0:
Remaining flits: 18917 18959 18960 18961 18972 (5 flits)
Measured flits: 18917 18959 18960 18961 18972 (5 flits)
Class 0:
Remaining flits: 18917 18959 18960 18961 18972 (5 flits)
Measured flits: 18917 18959 18960 18961 18972 (5 flits)
Class 0:
Remaining flits: 18917 18959 18960 18961 18972 (5 flits)
Measured flits: 18917 18959 18960 18961 18972 (5 flits)
Class 0:
Remaining flits: 18917 18959 18960 18961 18972 (5 flits)
Measured flits: 18917 18959 18960 18961 18972 (5 flits)
Class 0:
Remaining flits: 18917 18959 18960 18961 18972 (5 flits)
Measured flits: 18917 18959 18960 18961 18972 (5 flits)
Class 0:
Remaining flits: 18917 18959 18960 18961 18972 (5 flits)
Measured flits: 18917 18959 18960 18961 18972 (5 flits)
Class 0:
Remaining flits: 18917 18959 18960 18961 18972 (5 flits)
Measured flits: 18917 18959 18960 18961 18972 (5 flits)
Class 0:
Remaining flits: 18917 18959 18960 18961 18972 (5 flits)
Measured flits: 18917 18959 18960 18961 18972 (5 flits)
Class 0:
Remaining flits: 18917 18959 18960 18961 18972 (5 flits)
Measured flits: 18917 18959 18960 18961 18972 (5 flits)
Class 0:
Remaining flits: 18917 18959 18960 18961 18972 (5 flits)
Measured flits: 18917 18959 18960 18961 18972 (5 flits)
Class 0:
Remaining flits: 18917 18959 18960 18961 18972 (5 flits)
Measured flits: 18917 18959 18960 18961 18972 (5 flits)
Class 0:
Remaining flits: 18917 18959 18960 18961 18972 (5 flits)
Measured flits: 18917 18959 18960 18961 18972 (5 flits)
Class 0:
Remaining flits: 18917 18959 18960 18961 18972 (5 flits)
Measured flits: 18917 18959 18960 18961 18972 (5 flits)
Class 0:
Remaining flits: 18917 18959 18960 18961 18972 (5 flits)
Measured flits: 18917 18959 18960 18961 18972 (5 flits)
Class 0:
Remaining flits: 18917 18959 18960 18961 18972 (5 flits)
Measured flits: 18917 18959 18960 18961 18972 (5 flits)
Class 0:
Remaining flits: 18917 18959 18960 18961 18972 (5 flits)
Measured flits: 18917 18959 18960 18961 18972 (5 flits)
Class 0:
Remaining flits: 18917 18959 18960 18961 18972 (5 flits)
Measured flits: 18917 18959 18960 18961 18972 (5 flits)
Class 0:
Remaining flits: 18917 18959 18960 18961 18972 (5 flits)
Measured flits: 18917 18959 18960 18961 18972 (5 flits)
Class 0:
Remaining flits: 18917 18959 18960 18961 18972 (5 flits)
Measured flits: 18917 18959 18960 18961 18972 (5 flits)
Class 0:
Remaining flits: 18917 18959 18960 18961 18972 (5 flits)
Measured flits: 18917 18959 18960 18961 18972 (5 flits)
Class 0:
Remaining flits: 18917 18959 18960 18961 18972 (5 flits)
Measured flits: 18917 18959 18960 18961 18972 (5 flits)
Class 0:
Remaining flits: 18917 18959 18960 18961 18972 (5 flits)
Measured flits: 18917 18959 18960 18961 18972 (5 flits)
Class 0:
Remaining flits: 18917 18959 18960 18961 18972 (5 flits)
Measured flits: 18917 18959 18960 18961 18972 (5 flits)
Class 0:
Remaining flits: 18917 18959 18960 18961 18972 (5 flits)
Measured flits: 18917 18959 18960 18961 18972 (5 flits)
Class 0:
Remaining flits: 18917 18959 18960 18961 18972 (5 flits)
Measured flits: 18917 18959 18960 18961 18972 (5 flits)
Class 0:
Remaining flits: 18917 18959 18960 18961 18972 (5 flits)
Measured flits: 18917 18959 18960 18961 18972 (5 flits)
Class 0:
Remaining flits: 18917 18959 18960 18961 18972 (5 flits)
Measured flits: 18917 18959 18960 18961 18972 (5 flits)
Class 0:
Remaining flits: 18917 18959 18960 18961 18972 (5 flits)
Measured flits: 18917 18959 18960 18961 18972 (5 flits)
Class 0:
Remaining flits: 18917 18959 18960 18961 18972 (5 flits)
Measured flits: 18917 18959 18960 18961 18972 (5 flits)
Class 0:
Remaining flits: 18917 18959 18960 18961 18972 (5 flits)
Measured flits: 18917 18959 18960 18961 18972 (5 flits)
Class 0:
Remaining flits: 18917 18959 18960 18961 18972 (5 flits)
Measured flits: 18917 18959 18960 18961 18972 (5 flits)
Class 0:
Remaining flits: 18917 18959 18960 18961 18972 (5 flits)
Measured flits: 18917 18959 18960 18961 18972 (5 flits)
Class 0:
Remaining flits: 18917 18959 18960 18961 18972 (5 flits)
Measured flits: 18917 18959 18960 18961 18972 (5 flits)
Class 0:
Remaining flits: 18917 18959 18960 18961 18972 (5 flits)
Measured flits: 18917 18959 18960 18961 18972 (5 flits)
Class 0:
Remaining flits: 18917 18959 18960 18961 18972 (5 flits)
Measured flits: 18917 18959 18960 18961 18972 (5 flits)
Class 0:
Remaining flits: 18917 18959 18960 18961 18972 (5 flits)
Measured flits: 18917 18959 18960 18961 18972 (5 flits)
Class 0:
Remaining flits: 18917 18959 18960 18961 18972 (5 flits)
Measured flits: 18917 18959 18960 18961 18972 (5 flits)
Time taken is 7000 cycles
====== Traffic class 0 ======

Total number of flits generated = 18975, changed lanes = 18447
Overall minimum packet latency = 7 (1 samples)
Overall average packet latency = 557.372 (1 samples)
Overall maximum packet latency = 1960 (1 samples)
Overall minimum network latency = 8 (1 samples)
Overall average network latency = 71.7221 (1 samples)
Overall maximum network latency = 194 (1 samples)
Overall minimum flit latency = 8 (1 samples)
Overall average flit latency = 72.4768 (1 samples)
Overall maximum flit latency = 194 (1 samples)
Overall minimum fragmentation = 0 (1 samples)
Overall average fragmentation = 0 (1 samples)
Overall maximum fragmentation = 0 (1 samples)
Overall minimum injected packet rate = 0.166 (1 samples)
Overall average injected packet rate = 0.198437 (1 samples)
Overall maximum injected packet rate = 0.237 (1 samples)
Overall minimum accepted packet rate = 0.178667 (1 samples)
Overall average accepted packet rate = 0.198313 (1 samples)
Overall maximum accepted packet rate = 0.214333 (1 samples)
Overall minimum injected flit rate = 0.166 (1 samples)
Overall average injected flit rate = 0.198437 (1 samples)
Overall maximum injected flit rate = 0.237 (1 samples)
Overall minimum accepted flit rate = 0.178667 (1 samples)
Overall average accepted flit rate = 0.198313 (1 samples)
Overall maximum accepted flit rate = 0.214333 (1 samples)
Overall average injected packet size = 1 (1 samples)
Overall average accepted packet size = 1 (1 samples)
Overall average hops = 3.0041 (1 samples)
Overall throughput of the network (flits/cycle) = 6.32333
Overall throughput of the network (packets/cycle) = 6.32333
Total run time 3129.86
