make: Nothing to be done for 'all'.
Master: Running timer....
Master: Running SRC....
BEGIN Configuration File: ./examples/bitrev
// Topology

topology = torus;
k = 4;
n = 2;

// Routing
routing_function = dim_order;

// Flow control
num_vcs     = 4;
vc_buf_size = 4;
wait_for_tail_credit = 0;

// Router architecture
vc_allocator = islip;
sw_allocator = islip;
alloc_iters  = 1;

credit_delay   = 1;
routing_delay  = 1;
vc_alloc_delay = 1;
sw_alloc_delay = 1;

input_speedup     = 1;
output_speedup    = 1;
internal_speedup  = 1.0;

vc_busy_when_full = 0;

// Traffic
traffic = uniform;
packet_size = 1;

// Simulation
sim_type = throughput;

injection_rate = 0.13;

END Configuration File: ./examples/bitrev
===== Time: 1000 =====
Class 0:
Minimum packet latency = 7
Average packet latency = 33.2043
Maximum packet latency = 148
Minimum network latency = 8
Average network latency = 34.2043
Maximum network latency = 149
Slowest packet = 1093
Minimum flit latency = 8
Average flit latency = 34.2043
Maximum flit latency = 149
Slowest flit = 1093
Minimum fragmentation = 0
Average fragmentation = 0
Maximum fragmentation = 0
Minimum injected packet rate = 0.109 (at node 9)
Average injected packet rate = 0.126812
Maximum injected packet rate = 0.136 (at node 2)
Minimum accepted packet rate = 0.108 (at node 13)
Average accepted packet rate = 0.123313
Maximum accepted packet rate = 0.139 (at node 15)
Minimum injected flit rate = 0.109 (at node 9)
Average injected flit rate = 0.126812
Maximum injected flit rate = 0.136 (at node 2)
Minimum accepted flit rate = 0.108 (at node 13)
Average accepted flit rate = 0.123313
Maximum accepted flit rate = 0.139 (at node 15)
Total number of injected packets = 2029
Total number of injected flits = 2029
Average injected packet length = 1
Total number of accepted packets = 1973
Total number of accepted flits = 1973
Average accepted packet length = 1
Total in-flight flits = 56 (0 measured)
===== Time: 2000 =====
Class 0:
Minimum packet latency = 7
Average packet latency = 33.5836
Maximum packet latency = 148
Minimum network latency = 8
Average network latency = 34.5836
Maximum network latency = 149
Slowest packet = 1093
Minimum flit latency = 8
Average flit latency = 34.5836
Maximum flit latency = 149
Slowest flit = 1093
Minimum fragmentation = 0
Average fragmentation = 0
Maximum fragmentation = 0
Minimum injected packet rate = 0.1125 (at node 7)
Average injected packet rate = 0.125594
Maximum injected packet rate = 0.132 (at node 13)
Minimum accepted packet rate = 0.1075 (at node 4)
Average accepted packet rate = 0.123375
Maximum accepted packet rate = 0.138 (at node 8)
Minimum injected flit rate = 0.1125 (at node 7)
Average injected flit rate = 0.125594
Maximum injected flit rate = 0.132 (at node 13)
Minimum accepted flit rate = 0.1075 (at node 4)
Average accepted flit rate = 0.123375
Maximum accepted flit rate = 0.138 (at node 8)
Total number of injected packets = 4019
Total number of injected flits = 4019
Average injected packet length = 1
Total number of accepted packets = 3948
Total number of accepted flits = 3948
Average accepted packet length = 1
Total in-flight flits = 71 (0 measured)
===== Time: 3000 =====
Class 0:
Minimum packet latency = 7
Average packet latency = 35.06
Maximum packet latency = 113
Minimum network latency = 8
Average network latency = 36.06
Maximum network latency = 114
Slowest packet = 5835
Minimum flit latency = 8
Average flit latency = 36.06
Maximum flit latency = 114
Slowest flit = 5835
Minimum fragmentation = 0
Average fragmentation = 0
Maximum fragmentation = 0
Minimum injected packet rate = 0.117 (at node 0)
Average injected packet rate = 0.131562
Maximum injected packet rate = 0.145 (at node 6)
Minimum accepted packet rate = 0.111 (at node 5)
Average accepted packet rate = 0.13025
Maximum accepted packet rate = 0.149 (at node 0)
Minimum injected flit rate = 0.117 (at node 0)
Average injected flit rate = 0.131562
Maximum injected flit rate = 0.145 (at node 6)
Minimum accepted flit rate = 0.111 (at node 5)
Average accepted flit rate = 0.13025
Maximum accepted flit rate = 0.149 (at node 0)
Total number of injected packets = 2105
Total number of injected flits = 2105
Average injected packet length = 1
Total number of accepted packets = 2084
Total number of accepted flits = 2084
Average accepted packet length = 1
Total in-flight flits = 92 (0 measured)
===== Time: 4000 =====
Class 0:
Minimum packet latency = 7
Average packet latency = 37.0844
Maximum packet latency = 194
Minimum network latency = 8
Average network latency = 38.0679
Maximum network latency = 195
Slowest packet = 6894
Minimum flit latency = 8
Average flit latency = 38.5664
Maximum flit latency = 195
Slowest flit = 6894
Minimum fragmentation = 0
Average fragmentation = 0
Maximum fragmentation = 0
Minimum injected packet rate = 0.096 (at node 0)
Average injected packet rate = 0.130062
Maximum injected packet rate = 0.167 (at node 15)
Minimum accepted packet rate = 0.111 (at node 4)
Average accepted packet rate = 0.130875
Maximum accepted packet rate = 0.153 (at node 8)
Minimum injected flit rate = 0.096 (at node 0)
Average injected flit rate = 0.130062
Maximum injected flit rate = 0.167 (at node 15)
Minimum accepted flit rate = 0.111 (at node 4)
Average accepted flit rate = 0.130875
Maximum accepted flit rate = 0.153 (at node 8)
Total number of injected packets = 2081
Total number of injected flits = 2081
Average injected packet length = 1
Total number of accepted packets = 2094
Total number of accepted flits = 2094
Average accepted packet length = 1
Total in-flight flits = 79 (79 measured)
===== Time: 5000 =====
Class 0:
Minimum packet latency = 7
Average packet latency = 35.4068
Maximum packet latency = 194
Minimum network latency = 8
Average network latency = 36.3987
Maximum network latency = 195
Slowest packet = 6894
Minimum flit latency = 8
Average flit latency = 36.688
Maximum flit latency = 195
Slowest flit = 6894
Minimum fragmentation = 0
Average fragmentation = 0
Maximum fragmentation = 0
Minimum injected packet rate = 0.115 (at node 14)
Average injected packet rate = 0.128906
Maximum injected packet rate = 0.152 (at node 15)
Minimum accepted packet rate = 0.117 (at node 14)
Average accepted packet rate = 0.129312
Maximum accepted packet rate = 0.1465 (at node 8)
Minimum injected flit rate = 0.115 (at node 14)
Average injected flit rate = 0.128906
Maximum injected flit rate = 0.152 (at node 15)
Minimum accepted flit rate = 0.117 (at node 14)
Average accepted flit rate = 0.129312
Maximum accepted flit rate = 0.1465 (at node 8)
Total number of injected packets = 4125
Total number of injected flits = 4125
Average injected packet length = 1
Total number of accepted packets = 4138
Total number of accepted flits = 4138
Average accepted packet length = 1
Total in-flight flits = 79 (79 measured)
===== Time: 6000 =====
Class 0:
Minimum packet latency = 7
Average packet latency = 35.3728
Maximum packet latency = 194
Minimum network latency = 8
Average network latency = 36.3675
Maximum network latency = 195
Slowest packet = 6894
Minimum flit latency = 8
Average flit latency = 36.5593
Maximum flit latency = 195
Slowest flit = 6894
Minimum fragmentation = 0
Average fragmentation = 0
Maximum fragmentation = 0
Minimum injected packet rate = 0.121 (at node 14)
Average injected packet rate = 0.129646
Maximum injected packet rate = 0.147667 (at node 15)
Minimum accepted packet rate = 0.121 (at node 10)
Average accepted packet rate = 0.130333
Maximum accepted packet rate = 0.146333 (at node 8)
Minimum injected flit rate = 0.121 (at node 14)
Average injected flit rate = 0.129646
Maximum injected flit rate = 0.147667 (at node 15)
Minimum accepted flit rate = 0.121 (at node 10)
Average accepted flit rate = 0.130333
Maximum accepted flit rate = 0.146333 (at node 8)
Total number of injected packets = 6223
Total number of injected flits = 6223
Average injected packet length = 1
Total number of accepted packets = 6256
Total number of accepted flits = 6256
Average accepted packet length = 1
Total in-flight flits = 59 (59 measured)
Draining remaining packets ...
Class 0:
Remaining flits: 12248 12251 12267 12272 12289 12291 12295 12298 12301 12304 [...] (42 flits)
Measured flits: 12248 12251 12267 12272 12289 12291 12295 12298 12301 12304 [...] (42 flits)
Class 0:
Remaining flits: 12248 12272 12289 12291 12305 12314 12317 12318 12319 12321 [...] (25 flits)
Measured flits: 12248 12272 12289 12291 12305 12314 12317 12318 12319 12321 [...] (25 flits)
Class 0:
Remaining flits: 12314 12319 12325 12326 12328 12332 12333 12339 12340 12344 [...] (11 flits)
Measured flits: 12314 12319 12325 12326 12328 12332 12333 12339 12340 12344 [...] (11 flits)
Class 0:
Remaining flits: 12328 12332 12333 12340 12344 12346 (6 flits)
Measured flits: 12328 12332 12333 12340 12344 12346 (6 flits)
Class 0:
Remaining flits: (0 flits)
Measured flits: (0 flits)
Class 0:
Remaining flits: (0 flits)
Measured flits: (0 flits)
Class 0:
Remaining flits: (0 flits)
Measured flits: (0 flits)
Class 0:
Remaining flits: (0 flits)
Measured flits: (0 flits)
Class 0:
Remaining flits: (0 flits)
Measured flits: (0 flits)
Class 0:
Remaining flits: (0 flits)
Measured flits: (0 flits)
Class 0:
Remaining flits: (0 flits)
Measured flits: (0 flits)
Class 0:
Remaining flits: (0 flits)
Measured flits: (0 flits)
Class 0:
Remaining flits: (0 flits)
Measured flits: (0 flits)
Class 0:
Remaining flits: (0 flits)
Measured flits: (0 flits)
Class 0:
Remaining flits: (0 flits)
Measured flits: (0 flits)
Class 0:
Remaining flits: (0 flits)
Measured flits: (0 flits)
Class 0:
Remaining flits: (0 flits)
Measured flits: (0 flits)
Class 0:
Remaining flits: (0 flits)
Measured flits: (0 flits)
Class 0:
Remaining flits: (0 flits)
Measured flits: (0 flits)
Class 0:
Remaining flits: (0 flits)
Measured flits: (0 flits)
Class 0:
Remaining flits: (0 flits)
Measured flits: (0 flits)
Class 0:
Remaining flits: (0 flits)
Measured flits: (0 flits)
Class 0:
Remaining flits: (0 flits)
Measured flits: (0 flits)
Class 0:
Remaining flits: (0 flits)
Measured flits: (0 flits)
Class 0:
Remaining flits: (0 flits)
Measured flits: (0 flits)
Class 0:
Remaining flits: (0 flits)
Measured flits: (0 flits)
Class 0:
Remaining flits: (0 flits)
Measured flits: (0 flits)
Class 0:
Remaining flits: (0 flits)
Measured flits: (0 flits)
Class 0:
Remaining flits: (0 flits)
Measured flits: (0 flits)
Class 0:
Remaining flits: (0 flits)
Measured flits: (0 flits)
Class 0:
Remaining flits: (0 flits)
Measured flits: (0 flits)
Class 0:
Remaining flits: (0 flits)
Measured flits: (0 flits)
Class 0:
Remaining flits: (0 flits)
Measured flits: (0 flits)
Class 0:
Remaining flits: (0 flits)
Measured flits: (0 flits)
Class 0:
Remaining flits: (0 flits)
Measured flits: (0 flits)
Class 0:
Remaining flits: (0 flits)
Measured flits: (0 flits)
Class 0:
Remaining flits: (0 flits)
Measured flits: (0 flits)
Class 0:
Remaining flits: (0 flits)
Measured flits: (0 flits)
Class 0:
Remaining flits: (0 flits)
Measured flits: (0 flits)
Class 0:
Remaining flits: (0 flits)
Measured flits: (0 flits)
Class 0:
Remaining flits: (0 flits)
Measured flits: (0 flits)
Class 0:
Remaining flits: (0 flits)
Measured flits: (0 flits)
Class 0:
Remaining flits: (0 flits)
Measured flits: (0 flits)
Class 0:
Remaining flits: (0 flits)
Measured flits: (0 flits)
Class 0:
Remaining flits: (0 flits)
Measured flits: (0 flits)
Class 0:
Remaining flits: (0 flits)
Measured flits: (0 flits)
Class 0:
Remaining flits: (0 flits)
Measured flits: (0 flits)
Class 0:
Remaining flits: (0 flits)
Measured flits: (0 flits)
Class 0:
Remaining flits: (0 flits)
Measured flits: (0 flits)
Class 0:
Remaining flits: (0 flits)
Measured flits: (0 flits)
Class 0:
Remaining flits: (0 flits)
Measured flits: (0 flits)
Class 0:
Remaining flits: (0 flits)
Measured flits: (0 flits)
Class 0:
Remaining flits: (0 flits)
Measured flits: (0 flits)
Class 0:
Remaining flits: (0 flits)
Measured flits: (0 flits)
Class 0:
Remaining flits: (0 flits)
Measured flits: (0 flits)
Class 0:
Remaining flits: (0 flits)
Measured flits: (0 flits)
Class 0:
Remaining flits: (0 flits)
Measured flits: (0 flits)
Class 0:
Remaining flits: (0 flits)
Measured flits: (0 flits)
Class 0:
Remaining flits: (0 flits)
Measured flits: (0 flits)
Class 0:
Remaining flits: (0 flits)
Measured flits: (0 flits)
Class 0:
Remaining flits: (0 flits)
Measured flits: (0 flits)
Class 0:
Remaining flits: (0 flits)
Measured flits: (0 flits)
Class 0:
Remaining flits: (0 flits)
Measured flits: (0 flits)
Class 0:
Remaining flits: (0 flits)
Measured flits: (0 flits)
Class 0:
Remaining flits: (0 flits)
Measured flits: (0 flits)
Class 0:
Remaining flits: (0 flits)
Measured flits: (0 flits)
Class 0:
Remaining flits: (0 flits)
Measured flits: (0 flits)
Class 0:
Remaining flits: (0 flits)
Measured flits: (0 flits)
Class 0:
Remaining flits: (0 flits)
Measured flits: (0 flits)
Class 0:
Remaining flits: (0 flits)
Measured flits: (0 flits)
Class 0:
Remaining flits: (0 flits)
Measured flits: (0 flits)
Class 0:
Remaining flits: (0 flits)
Measured flits: (0 flits)
Class 0:
Remaining flits: (0 flits)
Measured flits: (0 flits)
Class 0:
Remaining flits: (0 flits)
Measured flits: (0 flits)
Class 0:
Remaining flits: (0 flits)
Measured flits: (0 flits)
Class 0:
Remaining flits: (0 flits)
Measured flits: (0 flits)
Class 0:
Remaining flits: (0 flits)
Measured flits: (0 flits)
Class 0:
Remaining flits: (0 flits)
Measured flits: (0 flits)
Class 0:
Remaining flits: (0 flits)
Measured flits: (0 flits)
Class 0:
Remaining flits: (0 flits)
Measured flits: (0 flits)
Class 0:
Remaining flits: (0 flits)
Measured flits: (0 flits)
Class 0:
Remaining flits: (0 flits)
Measured flits: (0 flits)
Class 0:
Remaining flits: (0 flits)
Measured flits: (0 flits)
Class 0:
Remaining flits: (0 flits)
Measured flits: (0 flits)
Class 0:
Remaining flits: (0 flits)
Measured flits: (0 flits)
Class 0:
Remaining flits: (0 flits)
Measured flits: (0 flits)
Class 0:
Remaining flits: (0 flits)
Measured flits: (0 flits)
Class 0:
Remaining flits: (0 flits)
Measured flits: (0 flits)
Class 0:
Remaining flits: (0 flits)
Measured flits: (0 flits)
Class 0:
Remaining flits: (0 flits)
Measured flits: (0 flits)
Class 0:
Remaining flits: (0 flits)
Measured flits: (0 flits)
Class 0:
Remaining flits: (0 flits)
Measured flits: (0 flits)
Class 0:
Remaining flits: (0 flits)
Measured flits: (0 flits)
Class 0:
Remaining flits: (0 flits)
Measured flits: (0 flits)
Class 0:
Remaining flits: (0 flits)
Measured flits: (0 flits)
Class 0:
Remaining flits: (0 flits)
Measured flits: (0 flits)
Class 0:
Remaining flits: (0 flits)
Measured flits: (0 flits)
Class 0:
Remaining flits: (0 flits)
Measured flits: (0 flits)
Class 0:
Remaining flits: (0 flits)
Measured flits: (0 flits)
Class 0:
Remaining flits: (0 flits)
Measured flits: (0 flits)
Class 0:
Remaining flits: (0 flits)
Measured flits: (0 flits)
Time taken is 7000 cycles
====== Traffic class 0 ======

Total number of flits generated = 12347, changed lanes = 11902
Overall minimum packet latency = 7 (1 samples)
Overall average packet latency = 35.4217 (1 samples)
Overall maximum packet latency = 194 (1 samples)
Overall minimum network latency = 8 (1 samples)
Overall average network latency = 36.4164 (1 samples)
Overall maximum network latency = 195 (1 samples)
Overall minimum flit latency = 8 (1 samples)
Overall average flit latency = 36.6057 (1 samples)
Overall maximum flit latency = 195 (1 samples)
Overall minimum fragmentation = 0 (1 samples)
Overall average fragmentation = 0 (1 samples)
Overall maximum fragmentation = 0 (1 samples)
Overall minimum injected packet rate = 0.121 (1 samples)
Overall average injected packet rate = 0.129646 (1 samples)
Overall maximum injected packet rate = 0.147667 (1 samples)
Overall minimum accepted packet rate = 0.121 (1 samples)
Overall average accepted packet rate = 0.130333 (1 samples)
Overall maximum accepted packet rate = 0.146333 (1 samples)
Overall minimum injected flit rate = 0.121 (1 samples)
Overall average injected flit rate = 0.129646 (1 samples)
Overall maximum injected flit rate = 0.147667 (1 samples)
Overall minimum accepted flit rate = 0.121 (1 samples)
Overall average accepted flit rate = 0.130333 (1 samples)
Overall maximum accepted flit rate = 0.146333 (1 samples)
Overall average injected packet size = 1 (1 samples)
Overall average accepted packet size = 1 (1 samples)
Overall average hops = 2.9812 (1 samples)
Overall throughput of the network (flits/cycle) = 4.11567
Overall throughput of the network (packets/cycle) = 4.11567
Total run time 31.7584
