make: Nothing to be done for 'all'.
Master: Running timer....
Master: Running SRC....
BEGIN Configuration File: ./examples/bitrev
// Topology

topology = torus;
k = 4;
n = 2;

// Routing
routing_function = dim_order;

// Flow control
num_vcs     = 4;
vc_buf_size = 4;
wait_for_tail_credit = 0;

// Router architecture
vc_allocator = islip;
sw_allocator = islip;
alloc_iters  = 1;

credit_delay   = 1;
routing_delay  = 1;
vc_alloc_delay = 1;
sw_alloc_delay = 1;

input_speedup     = 1;
output_speedup    = 1;
internal_speedup  = 1.0;

vc_busy_when_full = 0;

// Traffic
traffic = uniform;
packet_size = 1;

// Simulation
sim_type = throughput;

injection_rate = 0.33;

END Configuration File: ./examples/bitrev
===== Time: 1000 =====
Class 0:
Minimum packet latency = 7
Average packet latency = 140.887
Maximum packet latency = 588
Minimum network latency = 8
Average network latency = 82.8428
Maximum network latency = 191
Slowest packet = 442
Minimum flit latency = 8
Average flit latency = 82.8428
Maximum flit latency = 191
Slowest flit = 2957
Minimum fragmentation = 0
Average fragmentation = 0
Maximum fragmentation = 0
Minimum injected packet rate = 0.181 (at node 12)
Average injected packet rate = 0.247812
Maximum injected packet rate = 0.339 (at node 7)
Minimum accepted packet rate = 0.205 (at node 14)
Average accepted packet rate = 0.225375
Maximum accepted packet rate = 0.251 (at node 8)
Minimum injected flit rate = 0.181 (at node 12)
Average injected flit rate = 0.247812
Maximum injected flit rate = 0.339 (at node 7)
Minimum accepted flit rate = 0.205 (at node 14)
Average accepted flit rate = 0.225375
Maximum accepted flit rate = 0.251 (at node 8)
Total number of injected packets = 3965
Total number of injected flits = 3965
Average injected packet length = 1
Total number of accepted packets = 3606
Total number of accepted flits = 3606
Average accepted packet length = 1
Total in-flight flits = 370 (0 measured)
===== Time: 2000 =====
Class 0:
Minimum packet latency = 7
Average packet latency = 238.038
Maximum packet latency = 1145
Minimum network latency = 8
Average network latency = 87.1562
Maximum network latency = 222
Slowest packet = 442
Minimum flit latency = 8
Average flit latency = 87.1562
Maximum flit latency = 222
Slowest flit = 5168
Minimum fragmentation = 0
Average fragmentation = 0
Maximum fragmentation = 0
Minimum injected packet rate = 0.171 (at node 11)
Average injected packet rate = 0.24675
Maximum injected packet rate = 0.334 (at node 7)
Minimum accepted packet rate = 0.215 (at node 4)
Average accepted packet rate = 0.234687
Maximum accepted packet rate = 0.253 (at node 7)
Minimum injected flit rate = 0.171 (at node 11)
Average injected flit rate = 0.24675
Maximum injected flit rate = 0.334 (at node 7)
Minimum accepted flit rate = 0.215 (at node 4)
Average accepted flit rate = 0.234687
Maximum accepted flit rate = 0.253 (at node 7)
Total number of injected packets = 7896
Total number of injected flits = 7896
Average injected packet length = 1
Total number of accepted packets = 7510
Total number of accepted flits = 7510
Average accepted packet length = 1
Total in-flight flits = 395 (0 measured)
===== Time: 3000 =====
Class 0:
Minimum packet latency = 7
Average packet latency = 523.965
Maximum packet latency = 1613
Minimum network latency = 8
Average network latency = 96.6886
Maximum network latency = 220
Slowest packet = 7504
Minimum flit latency = 8
Average flit latency = 96.6886
Maximum flit latency = 220
Slowest flit = 8405
Minimum fragmentation = 0
Average fragmentation = 0
Maximum fragmentation = 0
Minimum injected packet rate = 0.166 (at node 10)
Average injected packet rate = 0.237125
Maximum injected packet rate = 0.351 (at node 7)
Minimum accepted packet rate = 0.205 (at node 4)
Average accepted packet rate = 0.239437
Maximum accepted packet rate = 0.272 (at node 8)
Minimum injected flit rate = 0.166 (at node 10)
Average injected flit rate = 0.237125
Maximum injected flit rate = 0.351 (at node 7)
Minimum accepted flit rate = 0.205 (at node 4)
Average accepted flit rate = 0.239437
Maximum accepted flit rate = 0.272 (at node 8)
Total number of injected packets = 3794
Total number of injected flits = 3794
Average injected packet length = 1
Total number of accepted packets = 3831
Total number of accepted flits = 3831
Average accepted packet length = 1
Total in-flight flits = 358 (0 measured)
===== Time: 4000 =====
Class 0:
Minimum packet latency = 8
Average packet latency = 724.808
Maximum packet latency = 2101
Minimum network latency = 9
Average network latency = 99.1919
Maximum network latency = 235
Slowest packet = 11704
Minimum flit latency = 9
Average flit latency = 100.207
Maximum flit latency = 235
Slowest flit = 14475
Minimum fragmentation = 0
Average fragmentation = 0
Maximum fragmentation = 0
Minimum injected packet rate = 0.165 (at node 13)
Average injected packet rate = 0.238375
Maximum injected packet rate = 0.337 (at node 1)
Minimum accepted packet rate = 0.22 (at node 14)
Average accepted packet rate = 0.235
Maximum accepted packet rate = 0.252 (at node 12)
Minimum injected flit rate = 0.165 (at node 13)
Average injected flit rate = 0.238375
Maximum injected flit rate = 0.337 (at node 1)
Minimum accepted flit rate = 0.22 (at node 14)
Average accepted flit rate = 0.235
Maximum accepted flit rate = 0.252 (at node 12)
Total number of injected packets = 3814
Total number of injected flits = 3814
Average injected packet length = 1
Total number of accepted packets = 3760
Total number of accepted flits = 3760
Average accepted packet length = 1
Total in-flight flits = 417 (417 measured)
===== Time: 5000 =====
Class 0:
Minimum packet latency = 8
Average packet latency = 876.727
Maximum packet latency = 2589
Minimum network latency = 9
Average network latency = 104.872
Maximum network latency = 288
Slowest packet = 11704
Minimum flit latency = 9
Average flit latency = 105.113
Maximum flit latency = 288
Slowest flit = 16175
Minimum fragmentation = 0
Average fragmentation = 0
Maximum fragmentation = 0
Minimum injected packet rate = 0.166 (at node 13)
Average injected packet rate = 0.232969
Maximum injected packet rate = 0.3115 (at node 6)
Minimum accepted packet rate = 0.2015 (at node 4)
Average accepted packet rate = 0.231281
Maximum accepted packet rate = 0.2465 (at node 12)
Minimum injected flit rate = 0.166 (at node 13)
Average injected flit rate = 0.232969
Maximum injected flit rate = 0.3115 (at node 6)
Minimum accepted flit rate = 0.2015 (at node 4)
Average accepted flit rate = 0.231281
Maximum accepted flit rate = 0.2465 (at node 12)
Total number of injected packets = 7455
Total number of injected flits = 7455
Average injected packet length = 1
Total number of accepted packets = 7401
Total number of accepted flits = 7401
Average accepted packet length = 1
Total in-flight flits = 415 (415 measured)
===== Time: 6000 =====
Class 0:
Minimum packet latency = 8
Average packet latency = 996.211
Maximum packet latency = 3099
Minimum network latency = 9
Average network latency = 104.447
Maximum network latency = 288
Slowest packet = 11704
Minimum flit latency = 9
Average flit latency = 104.62
Maximum flit latency = 288
Slowest flit = 16175
Minimum fragmentation = 0
Average fragmentation = 0
Maximum fragmentation = 0
Minimum injected packet rate = 0.166 (at node 15)
Average injected packet rate = 0.235083
Maximum injected packet rate = 0.317 (at node 5)
Minimum accepted packet rate = 0.205333 (at node 4)
Average accepted packet rate = 0.233813
Maximum accepted packet rate = 0.243667 (at node 9)
Minimum injected flit rate = 0.166 (at node 15)
Average injected flit rate = 0.235083
Maximum injected flit rate = 0.317 (at node 5)
Minimum accepted flit rate = 0.205333 (at node 4)
Average accepted flit rate = 0.233813
Maximum accepted flit rate = 0.243667 (at node 9)
Total number of injected packets = 11284
Total number of injected flits = 11284
Average injected packet length = 1
Total number of accepted packets = 11223
Total number of accepted flits = 11223
Average accepted packet length = 1
Total in-flight flits = 423 (423 measured)
Draining remaining packets ...
Class 0:
Remaining flits: 22336 22374 22431 22452 22462 22465 22481 22482 22494 22500 [...] (385 flits)
Measured flits: 22336 22374 22431 22452 22462 22465 22481 22482 22494 22500 [...] (385 flits)
Class 0:
Remaining flits: 22336 22374 22431 22452 22465 22481 22482 22494 22507 22525 [...] (345 flits)
Measured flits: 22336 22374 22431 22452 22465 22481 22482 22494 22507 22525 [...] (345 flits)
Class 0:
Remaining flits: 22374 22465 22481 22507 22554 22556 22562 22566 22568 22580 [...] (313 flits)
Measured flits: 22374 22465 22481 22507 22554 22556 22562 22566 22568 22580 [...] (313 flits)
Class 0:
Remaining flits: 22374 22465 22481 22507 22556 22562 22566 22580 22582 22590 [...] (273 flits)
Measured flits: 22374 22465 22481 22507 22556 22562 22566 22580 22582 22590 [...] (273 flits)
Class 0:
Remaining flits: 22374 22481 22507 22562 22566 22580 22611 22617 22619 22622 [...] (232 flits)
Measured flits: 22374 22481 22507 22562 22566 22580 22611 22617 22619 22622 [...] (232 flits)
Class 0:
Remaining flits: 22374 22481 22507 22562 22566 22611 22617 22619 22624 22646 [...] (208 flits)
Measured flits: 22374 22481 22507 22562 22566 22611 22617 22619 22624 22646 [...] (208 flits)
Class 0:
Remaining flits: 22507 22562 22611 22617 22624 22646 22652 22669 22670 22680 [...] (172 flits)
Measured flits: 22507 22562 22611 22617 22624 22646 22652 22669 22670 22680 [...] (172 flits)
Class 0:
Remaining flits: 22562 22611 22617 22624 22646 22669 22670 22700 22704 22732 [...] (139 flits)
Measured flits: 22562 22611 22617 22624 22646 22669 22670 22700 22704 22732 [...] (139 flits)
Class 0:
Remaining flits: 22562 22611 22617 22624 22646 22669 22700 22704 22735 22741 [...] (117 flits)
Measured flits: 22562 22611 22617 22624 22646 22669 22700 22704 22735 22741 [...] (117 flits)
Class 0:
Remaining flits: 22617 22624 22646 22700 22704 22741 22746 22750 22764 22780 [...] (85 flits)
Measured flits: 22617 22624 22646 22700 22704 22741 22746 22750 22764 22780 [...] (85 flits)
Class 0:
Remaining flits: 22617 22624 22646 22700 22704 22746 22783 22793 22795 22811 [...] (58 flits)
Measured flits: 22617 22624 22646 22700 22704 22746 22783 22793 22795 22811 [...] (58 flits)
Class 0:
Remaining flits: 22617 22624 22646 22704 22746 22793 22811 22819 22854 22890 [...] (40 flits)
Measured flits: 22617 22624 22646 22704 22746 22793 22811 22819 22854 22890 [...] (40 flits)
Class 0:
Remaining flits: 22646 22704 22746 22793 22811 22819 22854 22897 22916 22921 [...] (31 flits)
Measured flits: 22646 22704 22746 22793 22811 22819 22854 22897 22916 22921 [...] (31 flits)
Class 0:
Remaining flits: 22646 22704 22746 22793 22811 22854 22916 22921 22956 22958 [...] (24 flits)
Measured flits: 22646 22704 22746 22793 22811 22854 22916 22921 22956 22958 [...] (24 flits)
Class 0:
Remaining flits: 22646 22704 22793 22854 22916 22956 22958 22961 22963 22966 [...] (20 flits)
Measured flits: 22646 22704 22793 22854 22916 22956 22958 22961 22963 22966 [...] (20 flits)
Class 0:
Remaining flits: 22646 22704 22793 22916 22956 22958 22961 22963 22966 22967 [...] (18 flits)
Measured flits: 22646 22704 22793 22916 22956 22958 22961 22963 22966 22967 [...] (18 flits)
Class 0:
Remaining flits: 22646 22704 22793 22916 22956 22958 22961 22963 22966 22967 [...] (17 flits)
Measured flits: 22646 22704 22793 22916 22956 22958 22961 22963 22966 22967 [...] (17 flits)
Class 0:
Remaining flits: 22646 22704 22793 22916 22956 22958 22961 22963 22966 22967 [...] (17 flits)
Measured flits: 22646 22704 22793 22916 22956 22958 22961 22963 22966 22967 [...] (17 flits)
Class 0:
Remaining flits: 22646 22704 22793 22916 22956 22958 22961 22963 22966 22967 [...] (17 flits)
Measured flits: 22646 22704 22793 22916 22956 22958 22961 22963 22966 22967 [...] (17 flits)
Class 0:
Remaining flits: 22646 22704 22793 22916 22956 22958 22961 22963 22966 22967 [...] (17 flits)
Measured flits: 22646 22704 22793 22916 22956 22958 22961 22963 22966 22967 [...] (17 flits)
Class 0:
Remaining flits: 22646 22704 22793 22916 22956 22958 22961 22963 22966 22967 [...] (17 flits)
Measured flits: 22646 22704 22793 22916 22956 22958 22961 22963 22966 22967 [...] (17 flits)
Class 0:
Remaining flits: 22646 22704 22793 22916 22956 22958 22961 22963 22966 22967 [...] (17 flits)
Measured flits: 22646 22704 22793 22916 22956 22958 22961 22963 22966 22967 [...] (17 flits)
Class 0:
Remaining flits: 22646 22704 22793 22916 22956 22958 22961 22963 22966 22967 [...] (17 flits)
Measured flits: 22646 22704 22793 22916 22956 22958 22961 22963 22966 22967 [...] (17 flits)
Class 0:
Remaining flits: 22646 22704 22793 22916 22956 22958 22961 22963 22966 22967 [...] (17 flits)
Measured flits: 22646 22704 22793 22916 22956 22958 22961 22963 22966 22967 [...] (17 flits)
Class 0:
Remaining flits: 22646 22704 22793 22916 22956 22958 22961 22963 22966 22967 [...] (17 flits)
Measured flits: 22646 22704 22793 22916 22956 22958 22961 22963 22966 22967 [...] (17 flits)
Class 0:
Remaining flits: 22646 22704 22793 22916 22956 22958 22961 22963 22966 22967 [...] (17 flits)
Measured flits: 22646 22704 22793 22916 22956 22958 22961 22963 22966 22967 [...] (17 flits)
Class 0:
Remaining flits: 22646 22704 22793 22916 22956 22958 22961 22963 22966 22967 [...] (17 flits)
Measured flits: 22646 22704 22793 22916 22956 22958 22961 22963 22966 22967 [...] (17 flits)
Class 0:
Remaining flits: 22646 22704 22793 22916 22956 22958 22961 22963 22966 22967 [...] (17 flits)
Measured flits: 22646 22704 22793 22916 22956 22958 22961 22963 22966 22967 [...] (17 flits)
Class 0:
Remaining flits: 22646 22704 22793 22916 22956 22958 22961 22963 22966 22967 [...] (17 flits)
Measured flits: 22646 22704 22793 22916 22956 22958 22961 22963 22966 22967 [...] (17 flits)
Class 0:
Remaining flits: 22646 22704 22793 22916 22956 22958 22961 22963 22966 22967 [...] (17 flits)
Measured flits: 22646 22704 22793 22916 22956 22958 22961 22963 22966 22967 [...] (17 flits)
Class 0:
Remaining flits: 22646 22704 22793 22916 22956 22958 22961 22963 22966 22967 [...] (17 flits)
Measured flits: 22646 22704 22793 22916 22956 22958 22961 22963 22966 22967 [...] (17 flits)
Class 0:
Remaining flits: 22646 22704 22793 22916 22956 22958 22961 22963 22966 22967 [...] (17 flits)
Measured flits: 22646 22704 22793 22916 22956 22958 22961 22963 22966 22967 [...] (17 flits)
Class 0:
Remaining flits: 22646 22704 22793 22916 22956 22958 22961 22963 22966 22967 [...] (17 flits)
Measured flits: 22646 22704 22793 22916 22956 22958 22961 22963 22966 22967 [...] (17 flits)
Class 0:
Remaining flits: 22646 22704 22793 22916 22956 22958 22961 22963 22966 22967 [...] (17 flits)
Measured flits: 22646 22704 22793 22916 22956 22958 22961 22963 22966 22967 [...] (17 flits)
Class 0:
Remaining flits: 22646 22704 22793 22916 22956 22958 22961 22963 22966 22967 [...] (17 flits)
Measured flits: 22646 22704 22793 22916 22956 22958 22961 22963 22966 22967 [...] (17 flits)
Class 0:
Remaining flits: 22646 22704 22793 22916 22956 22958 22961 22963 22966 22967 [...] (17 flits)
Measured flits: 22646 22704 22793 22916 22956 22958 22961 22963 22966 22967 [...] (17 flits)
Class 0:
Remaining flits: 22646 22704 22793 22916 22956 22958 22961 22963 22966 22967 [...] (17 flits)
Measured flits: 22646 22704 22793 22916 22956 22958 22961 22963 22966 22967 [...] (17 flits)
Class 0:
Remaining flits: 22646 22704 22793 22916 22956 22958 22961 22963 22966 22967 [...] (17 flits)
Measured flits: 22646 22704 22793 22916 22956 22958 22961 22963 22966 22967 [...] (17 flits)
Class 0:
Remaining flits: 22646 22704 22793 22916 22956 22958 22961 22963 22966 22967 [...] (17 flits)
Measured flits: 22646 22704 22793 22916 22956 22958 22961 22963 22966 22967 [...] (17 flits)
Class 0:
Remaining flits: 22646 22704 22793 22916 22956 22958 22961 22963 22966 22967 [...] (17 flits)
Measured flits: 22646 22704 22793 22916 22956 22958 22961 22963 22966 22967 [...] (17 flits)
Class 0:
Remaining flits: 22646 22704 22793 22916 22956 22958 22961 22963 22966 22967 [...] (17 flits)
Measured flits: 22646 22704 22793 22916 22956 22958 22961 22963 22966 22967 [...] (17 flits)
Class 0:
Remaining flits: 22646 22704 22793 22916 22956 22958 22961 22963 22966 22967 [...] (17 flits)
Measured flits: 22646 22704 22793 22916 22956 22958 22961 22963 22966 22967 [...] (17 flits)
Class 0:
Remaining flits: 22646 22704 22793 22916 22956 22958 22961 22963 22966 22967 [...] (17 flits)
Measured flits: 22646 22704 22793 22916 22956 22958 22961 22963 22966 22967 [...] (17 flits)
Class 0:
Remaining flits: 22646 22704 22793 22916 22956 22958 22961 22963 22966 22967 [...] (17 flits)
Measured flits: 22646 22704 22793 22916 22956 22958 22961 22963 22966 22967 [...] (17 flits)
Class 0:
Remaining flits: 22646 22704 22793 22916 22956 22958 22961 22963 22966 22967 [...] (17 flits)
Measured flits: 22646 22704 22793 22916 22956 22958 22961 22963 22966 22967 [...] (17 flits)
Class 0:
Remaining flits: 22646 22704 22793 22916 22956 22958 22961 22963 22966 22967 [...] (17 flits)
Measured flits: 22646 22704 22793 22916 22956 22958 22961 22963 22966 22967 [...] (17 flits)
Class 0:
Remaining flits: 22646 22704 22793 22916 22956 22958 22961 22963 22966 22967 [...] (17 flits)
Measured flits: 22646 22704 22793 22916 22956 22958 22961 22963 22966 22967 [...] (17 flits)
Class 0:
Remaining flits: 22646 22704 22793 22916 22956 22958 22961 22963 22966 22967 [...] (17 flits)
Measured flits: 22646 22704 22793 22916 22956 22958 22961 22963 22966 22967 [...] (17 flits)
Class 0:
Remaining flits: 22646 22704 22793 22916 22956 22958 22961 22963 22966 22967 [...] (17 flits)
Measured flits: 22646 22704 22793 22916 22956 22958 22961 22963 22966 22967 [...] (17 flits)
Class 0:
Remaining flits: 22646 22704 22793 22916 22956 22958 22961 22963 22966 22967 [...] (17 flits)
Measured flits: 22646 22704 22793 22916 22956 22958 22961 22963 22966 22967 [...] (17 flits)
Class 0:
Remaining flits: 22646 22704 22793 22916 22956 22958 22961 22963 22966 22967 [...] (17 flits)
Measured flits: 22646 22704 22793 22916 22956 22958 22961 22963 22966 22967 [...] (17 flits)
Class 0:
Remaining flits: 22646 22704 22793 22916 22956 22958 22961 22963 22966 22967 [...] (17 flits)
Measured flits: 22646 22704 22793 22916 22956 22958 22961 22963 22966 22967 [...] (17 flits)
Class 0:
Remaining flits: 22646 22704 22793 22916 22956 22958 22961 22963 22966 22967 [...] (17 flits)
Measured flits: 22646 22704 22793 22916 22956 22958 22961 22963 22966 22967 [...] (17 flits)
Class 0:
Remaining flits: 22646 22704 22793 22916 22956 22958 22961 22963 22966 22967 [...] (17 flits)
Measured flits: 22646 22704 22793 22916 22956 22958 22961 22963 22966 22967 [...] (17 flits)
Class 0:
Remaining flits: 22646 22704 22793 22916 22956 22958 22961 22963 22966 22967 [...] (17 flits)
Measured flits: 22646 22704 22793 22916 22956 22958 22961 22963 22966 22967 [...] (17 flits)
Class 0:
Remaining flits: 22646 22704 22793 22916 22956 22958 22961 22963 22966 22967 [...] (17 flits)
Measured flits: 22646 22704 22793 22916 22956 22958 22961 22963 22966 22967 [...] (17 flits)
Class 0:
Remaining flits: 22646 22704 22793 22916 22956 22958 22961 22963 22966 22967 [...] (17 flits)
Measured flits: 22646 22704 22793 22916 22956 22958 22961 22963 22966 22967 [...] (17 flits)
Class 0:
Remaining flits: 22646 22704 22793 22916 22956 22958 22961 22963 22966 22967 [...] (17 flits)
Measured flits: 22646 22704 22793 22916 22956 22958 22961 22963 22966 22967 [...] (17 flits)
Class 0:
Remaining flits: 22646 22704 22793 22916 22956 22958 22961 22963 22966 22967 [...] (17 flits)
Measured flits: 22646 22704 22793 22916 22956 22958 22961 22963 22966 22967 [...] (17 flits)
Class 0:
Remaining flits: 22646 22704 22793 22916 22956 22958 22961 22963 22966 22967 [...] (17 flits)
Measured flits: 22646 22704 22793 22916 22956 22958 22961 22963 22966 22967 [...] (17 flits)
Class 0:
Remaining flits: 22646 22704 22793 22916 22956 22958 22961 22963 22966 22967 [...] (17 flits)
Measured flits: 22646 22704 22793 22916 22956 22958 22961 22963 22966 22967 [...] (17 flits)
Class 0:
Remaining flits: 22646 22704 22793 22916 22956 22958 22961 22963 22966 22967 [...] (17 flits)
Measured flits: 22646 22704 22793 22916 22956 22958 22961 22963 22966 22967 [...] (17 flits)
Class 0:
Remaining flits: 22646 22704 22793 22916 22956 22958 22961 22963 22966 22967 [...] (17 flits)
Measured flits: 22646 22704 22793 22916 22956 22958 22961 22963 22966 22967 [...] (17 flits)
Class 0:
Remaining flits: 22646 22704 22793 22916 22956 22958 22961 22963 22966 22967 [...] (17 flits)
Measured flits: 22646 22704 22793 22916 22956 22958 22961 22963 22966 22967 [...] (17 flits)
Class 0:
Remaining flits: 22646 22704 22793 22916 22956 22958 22961 22963 22966 22967 [...] (17 flits)
Measured flits: 22646 22704 22793 22916 22956 22958 22961 22963 22966 22967 [...] (17 flits)
Class 0:
Remaining flits: 22646 22704 22793 22916 22956 22958 22961 22963 22966 22967 [...] (17 flits)
Measured flits: 22646 22704 22793 22916 22956 22958 22961 22963 22966 22967 [...] (17 flits)
Class 0:
Remaining flits: 22646 22704 22793 22916 22956 22958 22961 22963 22966 22967 [...] (17 flits)
Measured flits: 22646 22704 22793 22916 22956 22958 22961 22963 22966 22967 [...] (17 flits)
Class 0:
Remaining flits: 22646 22704 22793 22916 22956 22958 22961 22963 22966 22967 [...] (17 flits)
Measured flits: 22646 22704 22793 22916 22956 22958 22961 22963 22966 22967 [...] (17 flits)
Class 0:
Remaining flits: 22646 22704 22793 22916 22956 22958 22961 22963 22966 22967 [...] (17 flits)
Measured flits: 22646 22704 22793 22916 22956 22958 22961 22963 22966 22967 [...] (17 flits)
Class 0:
Remaining flits: 22646 22704 22793 22916 22956 22958 22961 22963 22966 22967 [...] (17 flits)
Measured flits: 22646 22704 22793 22916 22956 22958 22961 22963 22966 22967 [...] (17 flits)
Class 0:
Remaining flits: 22646 22704 22793 22916 22956 22958 22961 22963 22966 22967 [...] (17 flits)
Measured flits: 22646 22704 22793 22916 22956 22958 22961 22963 22966 22967 [...] (17 flits)
Class 0:
Remaining flits: 22646 22704 22793 22916 22956 22958 22961 22963 22966 22967 [...] (17 flits)
Measured flits: 22646 22704 22793 22916 22956 22958 22961 22963 22966 22967 [...] (17 flits)
Class 0:
Remaining flits: 22646 22704 22793 22916 22956 22958 22961 22963 22966 22967 [...] (17 flits)
Measured flits: 22646 22704 22793 22916 22956 22958 22961 22963 22966 22967 [...] (17 flits)
Class 0:
Remaining flits: 22646 22704 22793 22916 22956 22958 22961 22963 22966 22967 [...] (17 flits)
Measured flits: 22646 22704 22793 22916 22956 22958 22961 22963 22966 22967 [...] (17 flits)
Class 0:
Remaining flits: 22646 22704 22793 22916 22956 22958 22961 22963 22966 22967 [...] (17 flits)
Measured flits: 22646 22704 22793 22916 22956 22958 22961 22963 22966 22967 [...] (17 flits)
Class 0:
Remaining flits: 22646 22704 22793 22916 22956 22958 22961 22963 22966 22967 [...] (17 flits)
Measured flits: 22646 22704 22793 22916 22956 22958 22961 22963 22966 22967 [...] (17 flits)
Class 0:
Remaining flits: 22646 22704 22793 22916 22956 22958 22961 22963 22966 22967 [...] (17 flits)
Measured flits: 22646 22704 22793 22916 22956 22958 22961 22963 22966 22967 [...] (17 flits)
Class 0:
Remaining flits: 22646 22704 22793 22916 22956 22958 22961 22963 22966 22967 [...] (17 flits)
Measured flits: 22646 22704 22793 22916 22956 22958 22961 22963 22966 22967 [...] (17 flits)
Class 0:
Remaining flits: 22646 22704 22793 22916 22956 22958 22961 22963 22966 22967 [...] (17 flits)
Measured flits: 22646 22704 22793 22916 22956 22958 22961 22963 22966 22967 [...] (17 flits)
Class 0:
Remaining flits: 22646 22704 22793 22916 22956 22958 22961 22963 22966 22967 [...] (17 flits)
Measured flits: 22646 22704 22793 22916 22956 22958 22961 22963 22966 22967 [...] (17 flits)
Class 0:
Remaining flits: 22646 22704 22793 22916 22956 22958 22961 22963 22966 22967 [...] (17 flits)
Measured flits: 22646 22704 22793 22916 22956 22958 22961 22963 22966 22967 [...] (17 flits)
Class 0:
Remaining flits: 22646 22704 22793 22916 22956 22958 22961 22963 22966 22967 [...] (17 flits)
Measured flits: 22646 22704 22793 22916 22956 22958 22961 22963 22966 22967 [...] (17 flits)
Class 0:
Remaining flits: 22646 22704 22793 22916 22956 22958 22961 22963 22966 22967 [...] (17 flits)
Measured flits: 22646 22704 22793 22916 22956 22958 22961 22963 22966 22967 [...] (17 flits)
Class 0:
Remaining flits: 22646 22704 22793 22916 22956 22958 22961 22963 22966 22967 [...] (17 flits)
Measured flits: 22646 22704 22793 22916 22956 22958 22961 22963 22966 22967 [...] (17 flits)
Class 0:
Remaining flits: 22646 22704 22793 22916 22956 22958 22961 22963 22966 22967 [...] (17 flits)
Measured flits: 22646 22704 22793 22916 22956 22958 22961 22963 22966 22967 [...] (17 flits)
Class 0:
Remaining flits: 22646 22704 22793 22916 22956 22958 22961 22963 22966 22967 [...] (17 flits)
Measured flits: 22646 22704 22793 22916 22956 22958 22961 22963 22966 22967 [...] (17 flits)
Class 0:
Remaining flits: 22646 22704 22793 22916 22956 22958 22961 22963 22966 22967 [...] (17 flits)
Measured flits: 22646 22704 22793 22916 22956 22958 22961 22963 22966 22967 [...] (17 flits)
Class 0:
Remaining flits: 22646 22704 22793 22916 22956 22958 22961 22963 22966 22967 [...] (17 flits)
Measured flits: 22646 22704 22793 22916 22956 22958 22961 22963 22966 22967 [...] (17 flits)
Class 0:
Remaining flits: 22646 22704 22793 22916 22956 22958 22961 22963 22966 22967 [...] (17 flits)
Measured flits: 22646 22704 22793 22916 22956 22958 22961 22963 22966 22967 [...] (17 flits)
Class 0:
Remaining flits: 22646 22704 22793 22916 22956 22958 22961 22963 22966 22967 [...] (17 flits)
Measured flits: 22646 22704 22793 22916 22956 22958 22961 22963 22966 22967 [...] (17 flits)
Class 0:
Remaining flits: 22646 22704 22793 22916 22956 22958 22961 22963 22966 22967 [...] (17 flits)
Measured flits: 22646 22704 22793 22916 22956 22958 22961 22963 22966 22967 [...] (17 flits)
Class 0:
Remaining flits: 22646 22704 22793 22916 22956 22958 22961 22963 22966 22967 [...] (17 flits)
Measured flits: 22646 22704 22793 22916 22956 22958 22961 22963 22966 22967 [...] (17 flits)
Class 0:
Remaining flits: 22646 22704 22793 22916 22956 22958 22961 22963 22966 22967 [...] (17 flits)
Measured flits: 22646 22704 22793 22916 22956 22958 22961 22963 22966 22967 [...] (17 flits)
Class 0:
Remaining flits: 22646 22704 22793 22916 22956 22958 22961 22963 22966 22967 [...] (17 flits)
Measured flits: 22646 22704 22793 22916 22956 22958 22961 22963 22966 22967 [...] (17 flits)
Class 0:
Remaining flits: 22646 22704 22793 22916 22956 22958 22961 22963 22966 22967 [...] (17 flits)
Measured flits: 22646 22704 22793 22916 22956 22958 22961 22963 22966 22967 [...] (17 flits)
Class 0:
Remaining flits: 22646 22704 22793 22916 22956 22958 22961 22963 22966 22967 [...] (17 flits)
Measured flits: 22646 22704 22793 22916 22956 22958 22961 22963 22966 22967 [...] (17 flits)
Class 0:
Remaining flits: 22646 22704 22793 22916 22956 22958 22961 22963 22966 22967 [...] (17 flits)
Measured flits: 22646 22704 22793 22916 22956 22958 22961 22963 22966 22967 [...] (17 flits)
Class 0:
Remaining flits: 22646 22704 22793 22916 22956 22958 22961 22963 22966 22967 [...] (17 flits)
Measured flits: 22646 22704 22793 22916 22956 22958 22961 22963 22966 22967 [...] (17 flits)
Class 0:
Remaining flits: 22646 22704 22793 22916 22956 22958 22961 22963 22966 22967 [...] (17 flits)
Measured flits: 22646 22704 22793 22916 22956 22958 22961 22963 22966 22967 [...] (17 flits)
Class 0:
Remaining flits: 22646 22704 22793 22916 22956 22958 22961 22963 22966 22967 [...] (17 flits)
Measured flits: 22646 22704 22793 22916 22956 22958 22961 22963 22966 22967 [...] (17 flits)
Class 0:
Remaining flits: 22646 22704 22793 22916 22956 22958 22961 22963 22966 22967 [...] (17 flits)
Measured flits: 22646 22704 22793 22916 22956 22958 22961 22963 22966 22967 [...] (17 flits)
Time taken is 7000 cycles
====== Traffic class 0 ======

Total number of flits generated = 22987, changed lanes = 22472
Overall minimum packet latency = 8 (1 samples)
Overall average packet latency = 1012.42 (1 samples)
Overall maximum packet latency = 3183 (1 samples)
Overall minimum network latency = 9 (1 samples)
Overall average network latency = 104.849 (1 samples)
Overall maximum network latency = 288 (1 samples)
Overall minimum flit latency = 9 (1 samples)
Overall average flit latency = 105.003 (1 samples)
Overall maximum flit latency = 288 (1 samples)
Overall minimum fragmentation = 0 (1 samples)
Overall average fragmentation = 0 (1 samples)
Overall maximum fragmentation = 0 (1 samples)
Overall minimum injected packet rate = 0.166 (1 samples)
Overall average injected packet rate = 0.235083 (1 samples)
Overall maximum injected packet rate = 0.317 (1 samples)
Overall minimum accepted packet rate = 0.205333 (1 samples)
Overall average accepted packet rate = 0.233813 (1 samples)
Overall maximum accepted packet rate = 0.243667 (1 samples)
Overall minimum injected flit rate = 0.166 (1 samples)
Overall average injected flit rate = 0.235083 (1 samples)
Overall maximum injected flit rate = 0.317 (1 samples)
Overall minimum accepted flit rate = 0.205333 (1 samples)
Overall average accepted flit rate = 0.233813 (1 samples)
Overall maximum accepted flit rate = 0.243667 (1 samples)
Overall average injected packet size = 1 (1 samples)
Overall average accepted packet size = 1 (1 samples)
Overall average hops = 2.99725 (1 samples)
Overall throughput of the network (flits/cycle) = 7.65667
Overall throughput of the network (packets/cycle) = 7.65667
Total run time 7060.78
