make: Nothing to be done for 'all'.
Master: Running timer....
Master: Running SRC....
BEGIN Configuration File: ./examples/bitrev
// Topology

topology = torus;
k = 4;
n = 2;

// Routing
routing_function = dim_order;

// Flow control
num_vcs     = 4;
vc_buf_size = 4;
wait_for_tail_credit = 0;

// Router architecture
vc_allocator = islip;
sw_allocator = islip;
alloc_iters  = 1;

credit_delay   = 1;
routing_delay  = 1;
vc_alloc_delay = 1;
sw_alloc_delay = 1;

input_speedup     = 1;
output_speedup    = 1;
internal_speedup  = 1.0;

vc_busy_when_full = 0;

// Traffic
traffic = uniform;
packet_size = 1;

// Simulation
sim_type = throughput;

injection_rate = 0.21;

END Configuration File: ./examples/bitrev
===== Time: 1000 =====
Class 0:
Minimum packet latency = 7
Average packet latency = 71.6675
Maximum packet latency = 266
Minimum network latency = 8
Average network latency = 61.7371
Maximum network latency = 172
Slowest packet = 764
Minimum flit latency = 8
Average flit latency = 61.7371
Maximum flit latency = 172
Slowest flit = 1434
Minimum fragmentation = 0
Average fragmentation = 0
Maximum fragmentation = 0
Minimum injected packet rate = 0.174 (at node 12)
Average injected packet rate = 0.191062
Maximum injected packet rate = 0.23 (at node 3)
Minimum accepted packet rate = 0.156 (at node 14)
Average accepted packet rate = 0.177813
Maximum accepted packet rate = 0.206 (at node 1)
Minimum injected flit rate = 0.174 (at node 12)
Average injected flit rate = 0.191062
Maximum injected flit rate = 0.23 (at node 3)
Minimum accepted flit rate = 0.156 (at node 14)
Average accepted flit rate = 0.177813
Maximum accepted flit rate = 0.206 (at node 1)
Total number of injected packets = 3057
Total number of injected flits = 3057
Average injected packet length = 1
Total number of accepted packets = 2845
Total number of accepted flits = 2845
Average accepted packet length = 1
Total in-flight flits = 220 (0 measured)
===== Time: 2000 =====
Class 0:
Minimum packet latency = 7
Average packet latency = 115.643
Maximum packet latency = 472
Minimum network latency = 8
Average network latency = 67.8585
Maximum network latency = 197
Slowest packet = 764
Minimum flit latency = 8
Average flit latency = 67.8585
Maximum flit latency = 197
Slowest flit = 2555
Minimum fragmentation = 0
Average fragmentation = 0
Maximum fragmentation = 0
Minimum injected packet rate = 0.1705 (at node 12)
Average injected packet rate = 0.189
Maximum injected packet rate = 0.218 (at node 3)
Minimum accepted packet rate = 0.1665 (at node 14)
Average accepted packet rate = 0.182031
Maximum accepted packet rate = 0.1945 (at node 1)
Minimum injected flit rate = 0.1705 (at node 12)
Average injected flit rate = 0.189
Maximum injected flit rate = 0.218 (at node 3)
Minimum accepted flit rate = 0.1665 (at node 14)
Average accepted flit rate = 0.182031
Maximum accepted flit rate = 0.1945 (at node 1)
Total number of injected packets = 6048
Total number of injected flits = 6048
Average injected packet length = 1
Total number of accepted packets = 5825
Total number of accepted flits = 5825
Average accepted packet length = 1
Total in-flight flits = 231 (0 measured)
===== Time: 3000 =====
Class 0:
Minimum packet latency = 7
Average packet latency = 237.634
Maximum packet latency = 668
Minimum network latency = 8
Average network latency = 73.748
Maximum network latency = 179
Slowest packet = 5627
Minimum flit latency = 8
Average flit latency = 73.748
Maximum flit latency = 179
Slowest flit = 6614
Minimum fragmentation = 0
Average fragmentation = 0
Maximum fragmentation = 0
Minimum injected packet rate = 0.166 (at node 8)
Average injected packet rate = 0.18775
Maximum injected packet rate = 0.221 (at node 0)
Minimum accepted packet rate = 0.169 (at node 4)
Average accepted packet rate = 0.1875
Maximum accepted packet rate = 0.214 (at node 8)
Minimum injected flit rate = 0.166 (at node 8)
Average injected flit rate = 0.18775
Maximum injected flit rate = 0.221 (at node 0)
Minimum accepted flit rate = 0.169 (at node 4)
Average accepted flit rate = 0.1875
Maximum accepted flit rate = 0.214 (at node 8)
Total number of injected packets = 3004
Total number of injected flits = 3004
Average injected packet length = 1
Total number of accepted packets = 3000
Total number of accepted flits = 3000
Average accepted packet length = 1
Total in-flight flits = 233 (0 measured)
===== Time: 4000 =====
Class 0:
Minimum packet latency = 7
Average packet latency = 309.173
Maximum packet latency = 860
Minimum network latency = 8
Average network latency = 71.0985
Maximum network latency = 199
Slowest packet = 9095
Minimum flit latency = 8
Average flit latency = 73.6767
Maximum flit latency = 199
Slowest flit = 11074
Minimum fragmentation = 0
Average fragmentation = 0
Maximum fragmentation = 0
Minimum injected packet rate = 0.165 (at node 12)
Average injected packet rate = 0.19025
Maximum injected packet rate = 0.229 (at node 3)
Minimum accepted packet rate = 0.162 (at node 13)
Average accepted packet rate = 0.191562
Maximum accepted packet rate = 0.215 (at node 9)
Minimum injected flit rate = 0.165 (at node 12)
Average injected flit rate = 0.19025
Maximum injected flit rate = 0.229 (at node 3)
Minimum accepted flit rate = 0.162 (at node 13)
Average accepted flit rate = 0.191562
Maximum accepted flit rate = 0.215 (at node 9)
Total number of injected packets = 3044
Total number of injected flits = 3044
Average injected packet length = 1
Total number of accepted packets = 3065
Total number of accepted flits = 3065
Average accepted packet length = 1
Total in-flight flits = 211 (211 measured)
===== Time: 5000 =====
Class 0:
Minimum packet latency = 7
Average packet latency = 366.8
Maximum packet latency = 1070
Minimum network latency = 8
Average network latency = 72.6198
Maximum network latency = 199
Slowest packet = 9095
Minimum flit latency = 8
Average flit latency = 73.8797
Maximum flit latency = 199
Slowest flit = 11074
Minimum fragmentation = 0
Average fragmentation = 0
Maximum fragmentation = 0
Minimum injected packet rate = 0.166 (at node 11)
Average injected packet rate = 0.186781
Maximum injected packet rate = 0.2215 (at node 1)
Minimum accepted packet rate = 0.166 (at node 13)
Average accepted packet rate = 0.187219
Maximum accepted packet rate = 0.205 (at node 11)
Minimum injected flit rate = 0.166 (at node 11)
Average injected flit rate = 0.186781
Maximum injected flit rate = 0.2215 (at node 1)
Minimum accepted flit rate = 0.166 (at node 13)
Average accepted flit rate = 0.187219
Maximum accepted flit rate = 0.205 (at node 11)
Total number of injected packets = 5977
Total number of injected flits = 5977
Average injected packet length = 1
Total number of accepted packets = 5991
Total number of accepted flits = 5991
Average accepted packet length = 1
Total in-flight flits = 219 (219 measured)
===== Time: 6000 =====
Class 0:
Minimum packet latency = 7
Average packet latency = 413.842
Maximum packet latency = 1338
Minimum network latency = 8
Average network latency = 72.8487
Maximum network latency = 199
Slowest packet = 9095
Minimum flit latency = 8
Average flit latency = 73.6788
Maximum flit latency = 199
Slowest flit = 11074
Minimum fragmentation = 0
Average fragmentation = 0
Maximum fragmentation = 0
Minimum injected packet rate = 0.165667 (at node 12)
Average injected packet rate = 0.187938
Maximum injected packet rate = 0.216333 (at node 3)
Minimum accepted packet rate = 0.17 (at node 13)
Average accepted packet rate = 0.188083
Maximum accepted packet rate = 0.200333 (at node 9)
Minimum injected flit rate = 0.165667 (at node 12)
Average injected flit rate = 0.187938
Maximum injected flit rate = 0.216333 (at node 3)
Minimum accepted flit rate = 0.17 (at node 13)
Average accepted flit rate = 0.188083
Maximum accepted flit rate = 0.200333 (at node 9)
Total number of injected packets = 9021
Total number of injected flits = 9021
Average injected packet length = 1
Total number of accepted packets = 9028
Total number of accepted flits = 9028
Average accepted packet length = 1
Total in-flight flits = 226 (226 measured)
Draining remaining packets ...
Class 0:
Remaining flits: 17644 17675 17680 17686 17687 17701 17709 17710 17717 17718 [...] (197 flits)
Measured flits: 17644 17675 17680 17686 17687 17701 17709 17710 17717 17718 [...] (197 flits)
Class 0:
Remaining flits: 17675 17710 17717 17724 17730 17733 17735 17736 17741 17744 [...] (170 flits)
Measured flits: 17675 17710 17717 17724 17730 17733 17735 17736 17741 17744 [...] (170 flits)
Class 0:
Remaining flits: 17730 17733 17752 17754 17755 17759 17760 17762 17770 17786 [...] (141 flits)
Measured flits: 17730 17733 17752 17754 17755 17759 17760 17762 17770 17786 [...] (141 flits)
Class 0:
Remaining flits: 17730 17733 17770 17786 17791 17813 17823 17826 17827 17832 [...] (122 flits)
Measured flits: 17730 17733 17770 17786 17791 17813 17823 17826 17827 17832 [...] (122 flits)
Class 0:
Remaining flits: 17823 17836 17841 17842 17843 17846 17848 17854 17860 17862 [...] (106 flits)
Measured flits: 17823 17836 17841 17842 17843 17846 17848 17854 17860 17862 [...] (106 flits)
Class 0:
Remaining flits: 17836 17842 17854 17860 17862 17863 17868 17869 17872 17880 [...] (95 flits)
Measured flits: 17836 17842 17854 17860 17862 17863 17868 17869 17872 17880 [...] (95 flits)
Class 0:
Remaining flits: 17842 17863 17869 17872 17880 17888 17892 17898 17902 17903 [...] (81 flits)
Measured flits: 17842 17863 17869 17872 17880 17888 17892 17898 17902 17903 [...] (81 flits)
Class 0:
Remaining flits: 17902 17919 17927 17929 17938 17940 17947 17948 17952 17961 [...] (62 flits)
Measured flits: 17902 17919 17927 17929 17938 17940 17947 17948 17952 17961 [...] (62 flits)
Class 0:
Remaining flits: 17919 17938 17940 17947 17965 17970 17975 17976 17978 17979 [...] (55 flits)
Measured flits: 17919 17938 17940 17947 17965 17970 17975 17976 17978 17979 [...] (55 flits)
Class 0:
Remaining flits: 17919 17938 17976 17981 17987 17990 17994 17997 17998 17999 [...] (44 flits)
Measured flits: 17919 17938 17976 17981 17987 17990 17994 17997 17998 17999 [...] (44 flits)
Class 0:
Remaining flits: 17997 17998 18009 18011 18014 18022 18027 18036 18037 18041 [...] (24 flits)
Measured flits: 17997 17998 18009 18011 18014 18022 18027 18036 18037 18041 [...] (24 flits)
Class 0:
Remaining flits: 17997 18011 18014 18027 18048 18050 18051 18055 18056 18058 [...] (13 flits)
Measured flits: 17997 18011 18014 18027 18048 18050 18051 18055 18056 18058 [...] (13 flits)
Class 0:
Remaining flits: 18014 18027 18048 18051 18058 18069 18074 (7 flits)
Measured flits: 18014 18027 18048 18051 18058 18069 18074 (7 flits)
Class 0:
Remaining flits: 18014 18027 18048 18051 18069 18074 (6 flits)
Measured flits: 18014 18027 18048 18051 18069 18074 (6 flits)
Class 0:
Remaining flits: 18014 18027 18048 18051 18069 18074 (6 flits)
Measured flits: 18014 18027 18048 18051 18069 18074 (6 flits)
Class 0:
Remaining flits: 18014 18027 18048 18051 18069 18074 (6 flits)
Measured flits: 18014 18027 18048 18051 18069 18074 (6 flits)
Class 0:
Remaining flits: 18014 18027 18048 18051 18069 18074 (6 flits)
Measured flits: 18014 18027 18048 18051 18069 18074 (6 flits)
Class 0:
Remaining flits: 18014 18027 18048 18051 18069 18074 (6 flits)
Measured flits: 18014 18027 18048 18051 18069 18074 (6 flits)
Class 0:
Remaining flits: 18014 18027 18048 18051 18069 18074 (6 flits)
Measured flits: 18014 18027 18048 18051 18069 18074 (6 flits)
Class 0:
Remaining flits: 18014 18027 18048 18051 18069 18074 (6 flits)
Measured flits: 18014 18027 18048 18051 18069 18074 (6 flits)
Class 0:
Remaining flits: 18014 18027 18048 18051 18069 18074 (6 flits)
Measured flits: 18014 18027 18048 18051 18069 18074 (6 flits)
Class 0:
Remaining flits: 18014 18027 18048 18051 18069 18074 (6 flits)
Measured flits: 18014 18027 18048 18051 18069 18074 (6 flits)
Class 0:
Remaining flits: 18014 18027 18048 18051 18069 18074 (6 flits)
Measured flits: 18014 18027 18048 18051 18069 18074 (6 flits)
Class 0:
Remaining flits: 18014 18027 18048 18051 18069 18074 (6 flits)
Measured flits: 18014 18027 18048 18051 18069 18074 (6 flits)
Class 0:
Remaining flits: 18014 18027 18048 18051 18069 18074 (6 flits)
Measured flits: 18014 18027 18048 18051 18069 18074 (6 flits)
Class 0:
Remaining flits: 18014 18027 18048 18051 18069 18074 (6 flits)
Measured flits: 18014 18027 18048 18051 18069 18074 (6 flits)
Class 0:
Remaining flits: 18014 18027 18048 18051 18069 18074 (6 flits)
Measured flits: 18014 18027 18048 18051 18069 18074 (6 flits)
Class 0:
Remaining flits: 18014 18027 18048 18051 18069 18074 (6 flits)
Measured flits: 18014 18027 18048 18051 18069 18074 (6 flits)
Class 0:
Remaining flits: 18014 18027 18048 18051 18069 18074 (6 flits)
Measured flits: 18014 18027 18048 18051 18069 18074 (6 flits)
Class 0:
Remaining flits: 18014 18027 18048 18051 18069 18074 (6 flits)
Measured flits: 18014 18027 18048 18051 18069 18074 (6 flits)
Class 0:
Remaining flits: 18014 18027 18048 18051 18069 18074 (6 flits)
Measured flits: 18014 18027 18048 18051 18069 18074 (6 flits)
Class 0:
Remaining flits: 18014 18027 18048 18051 18069 18074 (6 flits)
Measured flits: 18014 18027 18048 18051 18069 18074 (6 flits)
Class 0:
Remaining flits: 18014 18027 18048 18051 18069 18074 (6 flits)
Measured flits: 18014 18027 18048 18051 18069 18074 (6 flits)
Class 0:
Remaining flits: 18014 18027 18048 18051 18069 18074 (6 flits)
Measured flits: 18014 18027 18048 18051 18069 18074 (6 flits)
Class 0:
Remaining flits: 18014 18027 18048 18051 18069 18074 (6 flits)
Measured flits: 18014 18027 18048 18051 18069 18074 (6 flits)
Class 0:
Remaining flits: 18014 18027 18048 18051 18069 18074 (6 flits)
Measured flits: 18014 18027 18048 18051 18069 18074 (6 flits)
Class 0:
Remaining flits: 18014 18027 18048 18051 18069 18074 (6 flits)
Measured flits: 18014 18027 18048 18051 18069 18074 (6 flits)
Class 0:
Remaining flits: 18014 18027 18048 18051 18069 18074 (6 flits)
Measured flits: 18014 18027 18048 18051 18069 18074 (6 flits)
Class 0:
Remaining flits: 18014 18027 18048 18051 18069 18074 (6 flits)
Measured flits: 18014 18027 18048 18051 18069 18074 (6 flits)
Class 0:
Remaining flits: 18014 18027 18048 18051 18069 18074 (6 flits)
Measured flits: 18014 18027 18048 18051 18069 18074 (6 flits)
Class 0:
Remaining flits: 18014 18027 18048 18051 18069 18074 (6 flits)
Measured flits: 18014 18027 18048 18051 18069 18074 (6 flits)
Class 0:
Remaining flits: 18014 18027 18048 18051 18069 18074 (6 flits)
Measured flits: 18014 18027 18048 18051 18069 18074 (6 flits)
Class 0:
Remaining flits: 18014 18027 18048 18051 18069 18074 (6 flits)
Measured flits: 18014 18027 18048 18051 18069 18074 (6 flits)
Class 0:
Remaining flits: 18014 18027 18048 18051 18069 18074 (6 flits)
Measured flits: 18014 18027 18048 18051 18069 18074 (6 flits)
Class 0:
Remaining flits: 18014 18027 18048 18051 18069 18074 (6 flits)
Measured flits: 18014 18027 18048 18051 18069 18074 (6 flits)
Class 0:
Remaining flits: 18014 18027 18048 18051 18069 18074 (6 flits)
Measured flits: 18014 18027 18048 18051 18069 18074 (6 flits)
Class 0:
Remaining flits: 18014 18027 18048 18051 18069 18074 (6 flits)
Measured flits: 18014 18027 18048 18051 18069 18074 (6 flits)
Class 0:
Remaining flits: 18014 18027 18048 18051 18069 18074 (6 flits)
Measured flits: 18014 18027 18048 18051 18069 18074 (6 flits)
Class 0:
Remaining flits: 18014 18027 18048 18051 18069 18074 (6 flits)
Measured flits: 18014 18027 18048 18051 18069 18074 (6 flits)
Class 0:
Remaining flits: 18014 18027 18048 18051 18069 18074 (6 flits)
Measured flits: 18014 18027 18048 18051 18069 18074 (6 flits)
Class 0:
Remaining flits: 18014 18027 18048 18051 18069 18074 (6 flits)
Measured flits: 18014 18027 18048 18051 18069 18074 (6 flits)
Class 0:
Remaining flits: 18014 18027 18048 18051 18069 18074 (6 flits)
Measured flits: 18014 18027 18048 18051 18069 18074 (6 flits)
Class 0:
Remaining flits: 18014 18027 18048 18051 18069 18074 (6 flits)
Measured flits: 18014 18027 18048 18051 18069 18074 (6 flits)
Class 0:
Remaining flits: 18014 18027 18048 18051 18069 18074 (6 flits)
Measured flits: 18014 18027 18048 18051 18069 18074 (6 flits)
Class 0:
Remaining flits: 18014 18027 18048 18051 18069 18074 (6 flits)
Measured flits: 18014 18027 18048 18051 18069 18074 (6 flits)
Class 0:
Remaining flits: 18014 18027 18048 18051 18069 18074 (6 flits)
Measured flits: 18014 18027 18048 18051 18069 18074 (6 flits)
Class 0:
Remaining flits: 18014 18027 18048 18051 18069 18074 (6 flits)
Measured flits: 18014 18027 18048 18051 18069 18074 (6 flits)
Class 0:
Remaining flits: 18014 18027 18048 18051 18069 18074 (6 flits)
Measured flits: 18014 18027 18048 18051 18069 18074 (6 flits)
Class 0:
Remaining flits: 18014 18027 18048 18051 18069 18074 (6 flits)
Measured flits: 18014 18027 18048 18051 18069 18074 (6 flits)
Class 0:
Remaining flits: 18014 18027 18048 18051 18069 18074 (6 flits)
Measured flits: 18014 18027 18048 18051 18069 18074 (6 flits)
Class 0:
Remaining flits: 18014 18027 18048 18051 18069 18074 (6 flits)
Measured flits: 18014 18027 18048 18051 18069 18074 (6 flits)
Class 0:
Remaining flits: 18014 18027 18048 18051 18069 18074 (6 flits)
Measured flits: 18014 18027 18048 18051 18069 18074 (6 flits)
Class 0:
Remaining flits: 18014 18027 18048 18051 18069 18074 (6 flits)
Measured flits: 18014 18027 18048 18051 18069 18074 (6 flits)
Class 0:
Remaining flits: 18014 18027 18048 18051 18069 18074 (6 flits)
Measured flits: 18014 18027 18048 18051 18069 18074 (6 flits)
Class 0:
Remaining flits: 18014 18027 18048 18051 18069 18074 (6 flits)
Measured flits: 18014 18027 18048 18051 18069 18074 (6 flits)
Class 0:
Remaining flits: 18014 18027 18048 18051 18069 18074 (6 flits)
Measured flits: 18014 18027 18048 18051 18069 18074 (6 flits)
Class 0:
Remaining flits: 18014 18027 18048 18051 18069 18074 (6 flits)
Measured flits: 18014 18027 18048 18051 18069 18074 (6 flits)
Class 0:
Remaining flits: 18014 18027 18048 18051 18069 18074 (6 flits)
Measured flits: 18014 18027 18048 18051 18069 18074 (6 flits)
Class 0:
Remaining flits: 18014 18027 18048 18051 18069 18074 (6 flits)
Measured flits: 18014 18027 18048 18051 18069 18074 (6 flits)
Class 0:
Remaining flits: 18014 18027 18048 18051 18069 18074 (6 flits)
Measured flits: 18014 18027 18048 18051 18069 18074 (6 flits)
Class 0:
Remaining flits: 18014 18027 18048 18051 18069 18074 (6 flits)
Measured flits: 18014 18027 18048 18051 18069 18074 (6 flits)
Class 0:
Remaining flits: 18014 18027 18048 18051 18069 18074 (6 flits)
Measured flits: 18014 18027 18048 18051 18069 18074 (6 flits)
Class 0:
Remaining flits: 18014 18027 18048 18051 18069 18074 (6 flits)
Measured flits: 18014 18027 18048 18051 18069 18074 (6 flits)
Class 0:
Remaining flits: 18014 18027 18048 18051 18069 18074 (6 flits)
Measured flits: 18014 18027 18048 18051 18069 18074 (6 flits)
Class 0:
Remaining flits: 18014 18027 18048 18051 18069 18074 (6 flits)
Measured flits: 18014 18027 18048 18051 18069 18074 (6 flits)
Class 0:
Remaining flits: 18014 18027 18048 18051 18069 18074 (6 flits)
Measured flits: 18014 18027 18048 18051 18069 18074 (6 flits)
Class 0:
Remaining flits: 18014 18027 18048 18051 18069 18074 (6 flits)
Measured flits: 18014 18027 18048 18051 18069 18074 (6 flits)
Class 0:
Remaining flits: 18014 18027 18048 18051 18069 18074 (6 flits)
Measured flits: 18014 18027 18048 18051 18069 18074 (6 flits)
Class 0:
Remaining flits: 18014 18027 18048 18051 18069 18074 (6 flits)
Measured flits: 18014 18027 18048 18051 18069 18074 (6 flits)
Class 0:
Remaining flits: 18014 18027 18048 18051 18069 18074 (6 flits)
Measured flits: 18014 18027 18048 18051 18069 18074 (6 flits)
Class 0:
Remaining flits: 18014 18027 18048 18051 18069 18074 (6 flits)
Measured flits: 18014 18027 18048 18051 18069 18074 (6 flits)
Class 0:
Remaining flits: 18014 18027 18048 18051 18069 18074 (6 flits)
Measured flits: 18014 18027 18048 18051 18069 18074 (6 flits)
Class 0:
Remaining flits: 18014 18027 18048 18051 18069 18074 (6 flits)
Measured flits: 18014 18027 18048 18051 18069 18074 (6 flits)
Class 0:
Remaining flits: 18014 18027 18048 18051 18069 18074 (6 flits)
Measured flits: 18014 18027 18048 18051 18069 18074 (6 flits)
Class 0:
Remaining flits: 18014 18027 18048 18051 18069 18074 (6 flits)
Measured flits: 18014 18027 18048 18051 18069 18074 (6 flits)
Class 0:
Remaining flits: 18014 18027 18048 18051 18069 18074 (6 flits)
Measured flits: 18014 18027 18048 18051 18069 18074 (6 flits)
Class 0:
Remaining flits: 18014 18027 18048 18051 18069 18074 (6 flits)
Measured flits: 18014 18027 18048 18051 18069 18074 (6 flits)
Class 0:
Remaining flits: 18014 18027 18048 18051 18069 18074 (6 flits)
Measured flits: 18014 18027 18048 18051 18069 18074 (6 flits)
Class 0:
Remaining flits: 18014 18027 18048 18051 18069 18074 (6 flits)
Measured flits: 18014 18027 18048 18051 18069 18074 (6 flits)
Class 0:
Remaining flits: 18014 18027 18048 18051 18069 18074 (6 flits)
Measured flits: 18014 18027 18048 18051 18069 18074 (6 flits)
Class 0:
Remaining flits: 18014 18027 18048 18051 18069 18074 (6 flits)
Measured flits: 18014 18027 18048 18051 18069 18074 (6 flits)
Class 0:
Remaining flits: 18014 18027 18048 18051 18069 18074 (6 flits)
Measured flits: 18014 18027 18048 18051 18069 18074 (6 flits)
Class 0:
Remaining flits: 18014 18027 18048 18051 18069 18074 (6 flits)
Measured flits: 18014 18027 18048 18051 18069 18074 (6 flits)
Class 0:
Remaining flits: 18014 18027 18048 18051 18069 18074 (6 flits)
Measured flits: 18014 18027 18048 18051 18069 18074 (6 flits)
Class 0:
Remaining flits: 18014 18027 18048 18051 18069 18074 (6 flits)
Measured flits: 18014 18027 18048 18051 18069 18074 (6 flits)
Class 0:
Remaining flits: 18014 18027 18048 18051 18069 18074 (6 flits)
Measured flits: 18014 18027 18048 18051 18069 18074 (6 flits)
Class 0:
Remaining flits: 18014 18027 18048 18051 18069 18074 (6 flits)
Measured flits: 18014 18027 18048 18051 18069 18074 (6 flits)
Class 0:
Remaining flits: 18014 18027 18048 18051 18069 18074 (6 flits)
Measured flits: 18014 18027 18048 18051 18069 18074 (6 flits)
Class 0:
Remaining flits: 18014 18027 18048 18051 18069 18074 (6 flits)
Measured flits: 18014 18027 18048 18051 18069 18074 (6 flits)
Class 0:
Remaining flits: 18014 18027 18048 18051 18069 18074 (6 flits)
Measured flits: 18014 18027 18048 18051 18069 18074 (6 flits)
Class 0:
Remaining flits: 18014 18027 18048 18051 18069 18074 (6 flits)
Measured flits: 18014 18027 18048 18051 18069 18074 (6 flits)
Time taken is 7000 cycles
====== Traffic class 0 ======

Total number of flits generated = 18079, changed lanes = 17527
Overall minimum packet latency = 7 (1 samples)
Overall average packet latency = 427.443 (1 samples)
Overall maximum packet latency = 1359 (1 samples)
Overall minimum network latency = 8 (1 samples)
Overall average network latency = 73.6682 (1 samples)
Overall maximum network latency = 199 (1 samples)
Overall minimum flit latency = 8 (1 samples)
Overall average flit latency = 74.4579 (1 samples)
Overall maximum flit latency = 199 (1 samples)
Overall minimum fragmentation = 0 (1 samples)
Overall average fragmentation = 0 (1 samples)
Overall maximum fragmentation = 0 (1 samples)
Overall minimum injected packet rate = 0.165667 (1 samples)
Overall average injected packet rate = 0.187938 (1 samples)
Overall maximum injected packet rate = 0.216333 (1 samples)
Overall minimum accepted packet rate = 0.17 (1 samples)
Overall average accepted packet rate = 0.188083 (1 samples)
Overall maximum accepted packet rate = 0.200333 (1 samples)
Overall minimum injected flit rate = 0.165667 (1 samples)
Overall average injected flit rate = 0.187938 (1 samples)
Overall maximum injected flit rate = 0.216333 (1 samples)
Overall minimum accepted flit rate = 0.17 (1 samples)
Overall average accepted flit rate = 0.188083 (1 samples)
Overall maximum accepted flit rate = 0.200333 (1 samples)
Overall average injected packet size = 1 (1 samples)
Overall average accepted packet size = 1 (1 samples)
Overall average hops = 2.99246 (1 samples)
Overall throughput of the network (flits/cycle) = 6.02433
Overall throughput of the network (packets/cycle) = 6.02433
Total run time 3320.96
