make: Nothing to be done for 'all'.
Master: Running timer....
Master: Running SRC....
BEGIN Configuration File: ./examples/bitrev
// Topology

topology = mesh;
k = 4;
n = 2;

// Routing
routing_function = dor;

// Flow control
num_vcs     = 1;
vc_buf_size = 4;
wait_for_tail_credit = 0;

// Router architecture
vc_allocator = islip;
sw_allocator = islip;
alloc_iters  = 1;

credit_delay   = 1;
routing_delay  = 1;
vc_alloc_delay = 1;
sw_alloc_delay = 1;

input_speedup     = 1;
output_speedup    = 1;
internal_speedup  = 1.0;

vc_busy_when_full = 0;

// Traffic
traffic = uniform;
packet_size = 3;

// Simulation
sim_type = throughput;

injection_rate = 0.05;

END Configuration File: ./examples/bitrev
===== Time: 10000 =====
Class 0:
Minimum packet latency = 10
Average packet latency = 46.16
Maximum packet latency = 106
Minimum network latency = 11
Average network latency = 45.56
Maximum network latency = 107
Slowest packet = 59
Minimum flit latency = 8
Average flit latency = 39
Maximum flit latency = 105
Slowest flit = 179
Minimum fragmentation = 0
Average fragmentation = 5.12
Maximum fragmentation = 50
Minimum injected packet rate = 0.0006 (at node 8)
Average injected packet rate = 0.00098125
Maximum injected packet rate = 0.0015 (at node 0)
Minimum accepted packet rate = 0.0002 (at node 0)
Average accepted packet rate = 0.000625
Maximum accepted packet rate = 0.0015 (at node 3)
Minimum injected flit rate = 0.0016 (at node 8)
Average injected flit rate = 0.00278125
Maximum injected flit rate = 0.0044 (at node 0)
Minimum accepted flit rate = 0.0007 (at node 0)
Average accepted flit rate = 0.00190625
Maximum accepted flit rate = 0.0045 (at node 3)
Total number of injected packets = 157
Total number of injected flits = 445
Average injected packet length = 2.83439
Total number of accepted packets = 100
Total number of accepted flits = 305
Average accepted packet length = 3.05
Total in-flight flits = 169 (0 measured)
===== Time: 20000 =====
Class 0:
Minimum packet latency = 10
Average packet latency = 46.16
Maximum packet latency = 106
Minimum network latency = 11
Average network latency = 45.56
Maximum network latency = 107
Slowest packet = 59
Minimum flit latency = 8
Average flit latency = 39
Maximum flit latency = 105
Slowest flit = 179
Minimum fragmentation = 0
Average fragmentation = 5.12
Maximum fragmentation = 50
Minimum injected packet rate = 0.0003 (at node 8)
Average injected packet rate = 0.000490625
Maximum injected packet rate = 0.00075 (at node 0)
Minimum accepted packet rate = 0.0001 (at node 0)
Average accepted packet rate = 0.0003125
Maximum accepted packet rate = 0.00075 (at node 3)
Minimum injected flit rate = 0.0008 (at node 8)
Average injected flit rate = 0.00139062
Maximum injected flit rate = 0.0022 (at node 0)
Minimum accepted flit rate = 0.00035 (at node 0)
Average accepted flit rate = 0.000953125
Maximum accepted flit rate = 0.00225 (at node 3)
Total number of injected packets = 157
Total number of injected flits = 445
Average injected packet length = 2.83439
Total number of accepted packets = 100
Total number of accepted flits = 305
Average accepted packet length = 3.05
Total in-flight flits = 169 (0 measured)
===== Time: 30000 =====
Class 0:
Minimum packet latency = nan
Average packet latency = -nan
Maximum packet latency = -nan
Minimum network latency = nan
Average network latency = -nan
Maximum network latency = -nan
Slowest packet = -1
Minimum flit latency = nan
Average flit latency = -nan
Maximum flit latency = -nan
Slowest flit = -1
Minimum fragmentation = nan
Average fragmentation = -nan
Maximum fragmentation = -nan
Minimum injected packet rate = 0 (at node 0)
Average injected packet rate = 0
Maximum injected packet rate = 0 (at node 0)
Minimum accepted packet rate = 0 (at node 0)
Average accepted packet rate = 0
Maximum accepted packet rate = 0 (at node 0)
Minimum injected flit rate = 0 (at node 0)
Average injected flit rate = 0
Maximum injected flit rate = 0 (at node 0)
Minimum accepted flit rate = 0 (at node 0)
Average accepted flit rate = 0
Maximum accepted flit rate = 0 (at node 0)
Total number of injected packets = 0
Total number of injected flits = 0
Average injected packet length = -nan
Total number of accepted packets = 0
Total number of accepted flits = 0
Average accepted packet length = -nan
Total in-flight flits = 169 (0 measured)
===== Time: 40000 =====
Class 0:
Minimum packet latency = nan
Average packet latency = -nan
Maximum packet latency = -nan
Minimum network latency = nan
Average network latency = -nan
Maximum network latency = -nan
Slowest packet = -1
Minimum flit latency = nan
Average flit latency = -nan
Maximum flit latency = -nan
Slowest flit = -1
Minimum fragmentation = nan
Average fragmentation = -nan
Maximum fragmentation = -nan
Minimum injected packet rate = 0 (at node 0)
Average injected packet rate = 0
Maximum injected packet rate = 0 (at node 0)
Minimum accepted packet rate = 0 (at node 0)
Average accepted packet rate = 0
Maximum accepted packet rate = 0 (at node 0)
Minimum injected flit rate = 0 (at node 0)
Average injected flit rate = 0
Maximum injected flit rate = 0 (at node 0)
Minimum accepted flit rate = 0 (at node 0)
Average accepted flit rate = 0
Maximum accepted flit rate = 0 (at node 0)
Total number of injected packets = 0
Total number of injected flits = 0
Average injected packet length = -nan
Total number of accepted packets = 0
Total number of accepted flits = 0
Average accepted packet length = -nan
Total in-flight flits = 169 (0 measured)
===== Time: 50000 =====
Class 0:
Minimum packet latency = nan
Average packet latency = -nan
Maximum packet latency = -nan
Minimum network latency = nan
Average network latency = -nan
Maximum network latency = -nan
Slowest packet = -1
Minimum flit latency = nan
Average flit latency = -nan
Maximum flit latency = -nan
Slowest flit = -1
Minimum fragmentation = nan
Average fragmentation = -nan
Maximum fragmentation = -nan
Minimum injected packet rate = 0 (at node 0)
Average injected packet rate = 0
Maximum injected packet rate = 0 (at node 0)
Minimum accepted packet rate = 0 (at node 0)
Average accepted packet rate = 0
Maximum accepted packet rate = 0 (at node 0)
Minimum injected flit rate = 0 (at node 0)
Average injected flit rate = 0
Maximum injected flit rate = 0 (at node 0)
Minimum accepted flit rate = 0 (at node 0)
Average accepted flit rate = 0
Maximum accepted flit rate = 0 (at node 0)
Total number of injected packets = 0
Total number of injected flits = 0
Average injected packet length = -nan
Total number of accepted packets = 0
Total number of accepted flits = 0
Average accepted packet length = -nan
Total in-flight flits = 169 (0 measured)
===== Time: 60000 =====
Class 0:
Minimum packet latency = nan
Average packet latency = -nan
Maximum packet latency = -nan
Minimum network latency = nan
Average network latency = -nan
Maximum network latency = -nan
Slowest packet = -1
Minimum flit latency = nan
Average flit latency = -nan
Maximum flit latency = -nan
Slowest flit = -1
Minimum fragmentation = nan
Average fragmentation = -nan
Maximum fragmentation = -nan
Minimum injected packet rate = 0 (at node 0)
Average injected packet rate = 0
Maximum injected packet rate = 0 (at node 0)
Minimum accepted packet rate = 0 (at node 0)
Average accepted packet rate = 0
Maximum accepted packet rate = 0 (at node 0)
Minimum injected flit rate = 0 (at node 0)
Average injected flit rate = 0
Maximum injected flit rate = 0 (at node 0)
Minimum accepted flit rate = 0 (at node 0)
Average accepted flit rate = 0
Maximum accepted flit rate = 0 (at node 0)
Total number of injected packets = 0
Total number of injected flits = 0
Average injected packet length = -nan
Total number of accepted packets = 0
Total number of accepted flits = 0
Average accepted packet length = -nan
Total in-flight flits = 169 (0 measured)
Draining remaining packets ...
Class 0:
Remaining flits: 187 188 189 190 191 209 225 226 227 231 [...] (169 flits)
Measured flits: (0 flits)
Class 0:
Remaining flits: 187 188 189 190 191 209 225 226 227 231 [...] (169 flits)
Measured flits: (0 flits)
Class 0:
Remaining flits: 187 188 189 190 191 209 225 226 227 231 [...] (169 flits)
Measured flits: (0 flits)
Class 0:
Remaining flits: 187 188 189 190 191 209 225 226 227 231 [...] (169 flits)
Measured flits: (0 flits)
Class 0:
Remaining flits: 187 188 189 190 191 209 225 226 227 231 [...] (169 flits)
Measured flits: (0 flits)
Class 0:
Remaining flits: 187 188 189 190 191 209 225 226 227 231 [...] (169 flits)
Measured flits: (0 flits)
Class 0:
Remaining flits: 187 188 189 190 191 209 225 226 227 231 [...] (169 flits)
Measured flits: (0 flits)
Class 0:
Remaining flits: 187 188 189 190 191 209 225 226 227 231 [...] (169 flits)
Measured flits: (0 flits)
Class 0:
Remaining flits: 187 188 189 190 191 209 225 226 227 231 [...] (169 flits)
Measured flits: (0 flits)
Class 0:
Remaining flits: 187 188 189 190 191 209 225 226 227 231 [...] (169 flits)
Measured flits: (0 flits)
Class 0:
Remaining flits: 187 188 189 190 191 209 225 226 227 231 [...] (169 flits)
Measured flits: (0 flits)
Class 0:
Remaining flits: 187 188 189 190 191 209 225 226 227 231 [...] (169 flits)
Measured flits: (0 flits)
Class 0:
Remaining flits: 187 188 189 190 191 209 225 226 227 231 [...] (169 flits)
Measured flits: (0 flits)
Class 0:
Remaining flits: 187 188 189 190 191 209 225 226 227 231 [...] (169 flits)
Measured flits: (0 flits)
Class 0:
Remaining flits: 187 188 189 190 191 209 225 226 227 231 [...] (169 flits)
Measured flits: (0 flits)
Class 0:
Remaining flits: 187 188 189 190 191 209 225 226 227 231 [...] (169 flits)
Measured flits: (0 flits)
Class 0:
Remaining flits: 187 188 189 190 191 209 225 226 227 231 [...] (169 flits)
Measured flits: (0 flits)
Class 0:
Remaining flits: 187 188 189 190 191 209 225 226 227 231 [...] (169 flits)
Measured flits: (0 flits)
Class 0:
Remaining flits: 187 188 189 190 191 209 225 226 227 231 [...] (169 flits)
Measured flits: (0 flits)
Class 0:
Remaining flits: 187 188 189 190 191 209 225 226 227 231 [...] (169 flits)
Measured flits: (0 flits)
Class 0:
Remaining flits: 187 188 189 190 191 209 225 226 227 231 [...] (169 flits)
Measured flits: (0 flits)
Class 0:
Remaining flits: 187 188 189 190 191 209 225 226 227 231 [...] (169 flits)
Measured flits: (0 flits)
Class 0:
Remaining flits: 187 188 189 190 191 209 225 226 227 231 [...] (169 flits)
Measured flits: (0 flits)
Class 0:
Remaining flits: 187 188 189 190 191 209 225 226 227 231 [...] (169 flits)
Measured flits: (0 flits)
Class 0:
Remaining flits: 187 188 189 190 191 209 225 226 227 231 [...] (169 flits)
Measured flits: (0 flits)
Class 0:
Remaining flits: 187 188 189 190 191 209 225 226 227 231 [...] (169 flits)
Measured flits: (0 flits)
Class 0:
Remaining flits: 187 188 189 190 191 209 225 226 227 231 [...] (169 flits)
Measured flits: (0 flits)
Class 0:
Remaining flits: 187 188 189 190 191 209 225 226 227 231 [...] (169 flits)
Measured flits: (0 flits)
Class 0:
Remaining flits: 187 188 189 190 191 209 225 226 227 231 [...] (169 flits)
Measured flits: (0 flits)
Class 0:
Remaining flits: 187 188 189 190 191 209 225 226 227 231 [...] (169 flits)
Measured flits: (0 flits)
Class 0:
Remaining flits: 187 188 189 190 191 209 225 226 227 231 [...] (169 flits)
Measured flits: (0 flits)
Class 0:
Remaining flits: 187 188 189 190 191 209 225 226 227 231 [...] (169 flits)
Measured flits: (0 flits)
Class 0:
Remaining flits: 187 188 189 190 191 209 225 226 227 231 [...] (169 flits)
Measured flits: (0 flits)
Class 0:
Remaining flits: 187 188 189 190 191 209 225 226 227 231 [...] (169 flits)
Measured flits: (0 flits)
Class 0:
Remaining flits: 187 188 189 190 191 209 225 226 227 231 [...] (169 flits)
Measured flits: (0 flits)
Class 0:
Remaining flits: 187 188 189 190 191 209 225 226 227 231 [...] (169 flits)
Measured flits: (0 flits)
Class 0:
Remaining flits: 187 188 189 190 191 209 225 226 227 231 [...] (169 flits)
Measured flits: (0 flits)
Class 0:
Remaining flits: 187 188 189 190 191 209 225 226 227 231 [...] (169 flits)
Measured flits: (0 flits)
Class 0:
Remaining flits: 187 188 189 190 191 209 225 226 227 231 [...] (169 flits)
Measured flits: (0 flits)
Class 0:
Remaining flits: 187 188 189 190 191 209 225 226 227 231 [...] (169 flits)
Measured flits: (0 flits)
Class 0:
Remaining flits: 187 188 189 190 191 209 225 226 227 231 [...] (169 flits)
Measured flits: (0 flits)
Class 0:
Remaining flits: 187 188 189 190 191 209 225 226 227 231 [...] (169 flits)
Measured flits: (0 flits)
Class 0:
Remaining flits: 187 188 189 190 191 209 225 226 227 231 [...] (169 flits)
Measured flits: (0 flits)
Class 0:
Remaining flits: 187 188 189 190 191 209 225 226 227 231 [...] (169 flits)
Measured flits: (0 flits)
Class 0:
Remaining flits: 187 188 189 190 191 209 225 226 227 231 [...] (169 flits)
Measured flits: (0 flits)
Class 0:
Remaining flits: 187 188 189 190 191 209 225 226 227 231 [...] (169 flits)
Measured flits: (0 flits)
Class 0:
Remaining flits: 187 188 189 190 191 209 225 226 227 231 [...] (169 flits)
Measured flits: (0 flits)
Class 0:
Remaining flits: 187 188 189 190 191 209 225 226 227 231 [...] (169 flits)
Measured flits: (0 flits)
Class 0:
Remaining flits: 187 188 189 190 191 209 225 226 227 231 [...] (169 flits)
Measured flits: (0 flits)
Class 0:
Remaining flits: 187 188 189 190 191 209 225 226 227 231 [...] (169 flits)
Measured flits: (0 flits)
Class 0:
Remaining flits: 187 188 189 190 191 209 225 226 227 231 [...] (169 flits)
Measured flits: (0 flits)
Class 0:
Remaining flits: 187 188 189 190 191 209 225 226 227 231 [...] (169 flits)
Measured flits: (0 flits)
Class 0:
Remaining flits: 187 188 189 190 191 209 225 226 227 231 [...] (169 flits)
Measured flits: (0 flits)
Class 0:
Remaining flits: 187 188 189 190 191 209 225 226 227 231 [...] (169 flits)
Measured flits: (0 flits)
Class 0:
Remaining flits: 187 188 189 190 191 209 225 226 227 231 [...] (169 flits)
Measured flits: (0 flits)
Class 0:
Remaining flits: 187 188 189 190 191 209 225 226 227 231 [...] (169 flits)
Measured flits: (0 flits)
Class 0:
Remaining flits: 187 188 189 190 191 209 225 226 227 231 [...] (169 flits)
Measured flits: (0 flits)
Class 0:
Remaining flits: 187 188 189 190 191 209 225 226 227 231 [...] (169 flits)
Measured flits: (0 flits)
Class 0:
Remaining flits: 187 188 189 190 191 209 225 226 227 231 [...] (169 flits)
Measured flits: (0 flits)
Class 0:
Remaining flits: 187 188 189 190 191 209 225 226 227 231 [...] (169 flits)
Measured flits: (0 flits)
Class 0:
Remaining flits: 187 188 189 190 191 209 225 226 227 231 [...] (169 flits)
Measured flits: (0 flits)
Class 0:
Remaining flits: 187 188 189 190 191 209 225 226 227 231 [...] (169 flits)
Measured flits: (0 flits)
Class 0:
Remaining flits: 187 188 189 190 191 209 225 226 227 231 [...] (169 flits)
Measured flits: (0 flits)
Class 0:
Remaining flits: 187 188 189 190 191 209 225 226 227 231 [...] (169 flits)
Measured flits: (0 flits)
Class 0:
Remaining flits: 187 188 189 190 191 209 225 226 227 231 [...] (169 flits)
Measured flits: (0 flits)
Class 0:
Remaining flits: 187 188 189 190 191 209 225 226 227 231 [...] (169 flits)
Measured flits: (0 flits)
Class 0:
Remaining flits: 187 188 189 190 191 209 225 226 227 231 [...] (169 flits)
Measured flits: (0 flits)
Class 0:
Remaining flits: 187 188 189 190 191 209 225 226 227 231 [...] (169 flits)
Measured flits: (0 flits)
Class 0:
Remaining flits: 187 188 189 190 191 209 225 226 227 231 [...] (169 flits)
Measured flits: (0 flits)
Class 0:
Remaining flits: 187 188 189 190 191 209 225 226 227 231 [...] (169 flits)
Measured flits: (0 flits)
Class 0:
Remaining flits: 187 188 189 190 191 209 225 226 227 231 [...] (169 flits)
Measured flits: (0 flits)
Class 0:
Remaining flits: 187 188 189 190 191 209 225 226 227 231 [...] (169 flits)
Measured flits: (0 flits)
Class 0:
Remaining flits: 187 188 189 190 191 209 225 226 227 231 [...] (169 flits)
Measured flits: (0 flits)
Class 0:
Remaining flits: 187 188 189 190 191 209 225 226 227 231 [...] (169 flits)
Measured flits: (0 flits)
Class 0:
Remaining flits: 187 188 189 190 191 209 225 226 227 231 [...] (169 flits)
Measured flits: (0 flits)
Class 0:
Remaining flits: 187 188 189 190 191 209 225 226 227 231 [...] (169 flits)
Measured flits: (0 flits)
Class 0:
Remaining flits: 187 188 189 190 191 209 225 226 227 231 [...] (169 flits)
Measured flits: (0 flits)
Class 0:
Remaining flits: 187 188 189 190 191 209 225 226 227 231 [...] (169 flits)
Measured flits: (0 flits)
Class 0:
Remaining flits: 187 188 189 190 191 209 225 226 227 231 [...] (169 flits)
Measured flits: (0 flits)
Class 0:
Remaining flits: 187 188 189 190 191 209 225 226 227 231 [...] (169 flits)
Measured flits: (0 flits)
Class 0:
Remaining flits: 187 188 189 190 191 209 225 226 227 231 [...] (169 flits)
Measured flits: (0 flits)
Class 0:
Remaining flits: 187 188 189 190 191 209 225 226 227 231 [...] (169 flits)
Measured flits: (0 flits)
Class 0:
Remaining flits: 187 188 189 190 191 209 225 226 227 231 [...] (169 flits)
Measured flits: (0 flits)
Class 0:
Remaining flits: 187 188 189 190 191 209 225 226 227 231 [...] (169 flits)
Measured flits: (0 flits)
Class 0:
Remaining flits: 187 188 189 190 191 209 225 226 227 231 [...] (169 flits)
Measured flits: (0 flits)
Class 0:
Remaining flits: 187 188 189 190 191 209 225 226 227 231 [...] (169 flits)
Measured flits: (0 flits)
Class 0:
Remaining flits: 187 188 189 190 191 209 225 226 227 231 [...] (169 flits)
Measured flits: (0 flits)
Class 0:
Remaining flits: 187 188 189 190 191 209 225 226 227 231 [...] (169 flits)
Measured flits: (0 flits)
Class 0:
Remaining flits: 187 188 189 190 191 209 225 226 227 231 [...] (169 flits)
Measured flits: (0 flits)
Class 0:
Remaining flits: 187 188 189 190 191 209 225 226 227 231 [...] (169 flits)
Measured flits: (0 flits)
Class 0:
Remaining flits: 187 188 189 190 191 209 225 226 227 231 [...] (169 flits)
Measured flits: (0 flits)
Class 0:
Remaining flits: 187 188 189 190 191 209 225 226 227 231 [...] (169 flits)
Measured flits: (0 flits)
Class 0:
Remaining flits: 187 188 189 190 191 209 225 226 227 231 [...] (169 flits)
Measured flits: (0 flits)
Class 0:
Remaining flits: 187 188 189 190 191 209 225 226 227 231 [...] (169 flits)
Measured flits: (0 flits)
Class 0:
Remaining flits: 187 188 189 190 191 209 225 226 227 231 [...] (169 flits)
Measured flits: (0 flits)
Class 0:
Remaining flits: 187 188 189 190 191 209 225 226 227 231 [...] (169 flits)
Measured flits: (0 flits)
Class 0:
Remaining flits: 187 188 189 190 191 209 225 226 227 231 [...] (169 flits)
Measured flits: (0 flits)
Class 0:
Remaining flits: 187 188 189 190 191 209 225 226 227 231 [...] (169 flits)
Measured flits: (0 flits)
Class 0:
Remaining flits: 187 188 189 190 191 209 225 226 227 231 [...] (169 flits)
Measured flits: (0 flits)
Class 0:
Remaining flits: 187 188 189 190 191 209 225 226 227 231 [...] (169 flits)
Measured flits: (0 flits)
Class 0:
Remaining flits: 187 188 189 190 191 209 225 226 227 231 [...] (169 flits)
Measured flits: (0 flits)
Time taken is 61000 cycles
====== Traffic class 0 ======

Total number of flits generated = 474, changed lanes = 0
Overall minimum packet latency = nan (1 samples)
Overall average packet latency = -nan (1 samples)
Overall maximum packet latency = -nan (1 samples)
Overall minimum network latency = nan (1 samples)
Overall average network latency = -nan (1 samples)
Overall maximum network latency = -nan (1 samples)
Overall minimum flit latency = nan (1 samples)
Overall average flit latency = -nan (1 samples)
Overall maximum flit latency = -nan (1 samples)
Overall minimum fragmentation = nan (1 samples)
Overall average fragmentation = -nan (1 samples)
Overall maximum fragmentation = -nan (1 samples)
Overall minimum injected packet rate = 0 (1 samples)
Overall average injected packet rate = 0 (1 samples)
Overall maximum injected packet rate = 0 (1 samples)
Overall minimum accepted packet rate = 0 (1 samples)
Overall average accepted packet rate = 0 (1 samples)
Overall maximum accepted packet rate = 0 (1 samples)
Overall minimum injected flit rate = 0 (1 samples)
Overall average injected flit rate = 0 (1 samples)
Overall maximum injected flit rate = 0 (1 samples)
Overall minimum accepted flit rate = 0 (1 samples)
Overall average accepted flit rate = 0 (1 samples)
Overall maximum accepted flit rate = 0 (1 samples)
Overall average injected packet size = -nan (1 samples)
Overall average accepted packet size = -nan (1 samples)
Overall average hops = -nan (1 samples)
Overall throughput of the network (flits/cycle) = 0.0101667
Overall throughput of the network (packets/cycle) = 0.00333333
Total run time 619.5
