make: Nothing to be done for 'all'.
Master: Running timer....
Master: Running SRC....
BEGIN Configuration File: ./examples/bitrev
// Topology

topology = mesh;
k = 4;
n = 2;

// Routing
routing_function = dor;

// Flow control
num_vcs     = 1;
vc_buf_size = 4;
wait_for_tail_credit = 0;

// Router architecture
vc_allocator = islip;
sw_allocator = islip;
alloc_iters  = 1;

credit_delay   = 1;
routing_delay  = 1;
vc_alloc_delay = 1;
sw_alloc_delay = 1;

input_speedup     = 1;
output_speedup    = 1;
internal_speedup  = 1.0;

vc_busy_when_full = 0;

// Traffic
traffic = uniform;
packet_size = 4;

// Simulation
sim_type = throughput;

injection_rate = 0.05;

END Configuration File: ./examples/bitrev
===== Time: 10000 =====
Class 0:
Minimum packet latency = 18
Average packet latency = 45.4211
Maximum packet latency = 93
Minimum network latency = 19
Average network latency = 42.5965
Maximum network latency = 94
Slowest packet = 18
Minimum flit latency = 15
Average flit latency = 36.2743
Maximum flit latency = 91
Slowest flit = 75
Minimum fragmentation = 0
Average fragmentation = 4.70175
Maximum fragmentation = 45
Minimum injected packet rate = 0.0001 (at node 9)
Average injected packet rate = 0.000625
Maximum injected packet rate = 0.0012 (at node 14)
Minimum accepted packet rate = 0.0001 (at node 1)
Average accepted packet rate = 0.00035625
Maximum accepted packet rate = 0.0008 (at node 9)
Minimum injected flit rate = 0.0004 (at node 9)
Average injected flit rate = 0.00249375
Maximum injected flit rate = 0.0048 (at node 14)
Minimum accepted flit rate = 0.0004 (at node 1)
Average accepted flit rate = 0.00148125
Maximum accepted flit rate = 0.0032 (at node 9)
Total number of injected packets = 100
Total number of injected flits = 399
Average injected packet length = 3.99
Total number of accepted packets = 57
Total number of accepted flits = 237
Average accepted packet length = 4.15789
Total in-flight flits = 223 (0 measured)
===== Time: 20000 =====
Class 0:
Minimum packet latency = 18
Average packet latency = 45.4211
Maximum packet latency = 93
Minimum network latency = 19
Average network latency = 42.5965
Maximum network latency = 94
Slowest packet = 18
Minimum flit latency = 15
Average flit latency = 36.2743
Maximum flit latency = 91
Slowest flit = 75
Minimum fragmentation = 0
Average fragmentation = 4.70175
Maximum fragmentation = 45
Minimum injected packet rate = 5e-05 (at node 9)
Average injected packet rate = 0.0003125
Maximum injected packet rate = 0.0006 (at node 14)
Minimum accepted packet rate = 5e-05 (at node 1)
Average accepted packet rate = 0.000178125
Maximum accepted packet rate = 0.0004 (at node 9)
Minimum injected flit rate = 0.0002 (at node 9)
Average injected flit rate = 0.00124687
Maximum injected flit rate = 0.0024 (at node 14)
Minimum accepted flit rate = 0.0002 (at node 1)
Average accepted flit rate = 0.000740625
Maximum accepted flit rate = 0.0016 (at node 9)
Total number of injected packets = 100
Total number of injected flits = 399
Average injected packet length = 3.99
Total number of accepted packets = 57
Total number of accepted flits = 237
Average accepted packet length = 4.15789
Total in-flight flits = 223 (0 measured)
===== Time: 30000 =====
Class 0:
Minimum packet latency = nan
Average packet latency = -nan
Maximum packet latency = -nan
Minimum network latency = nan
Average network latency = -nan
Maximum network latency = -nan
Slowest packet = -1
Minimum flit latency = nan
Average flit latency = -nan
Maximum flit latency = -nan
Slowest flit = -1
Minimum fragmentation = nan
Average fragmentation = -nan
Maximum fragmentation = -nan
Minimum injected packet rate = 0 (at node 0)
Average injected packet rate = 0
Maximum injected packet rate = 0 (at node 0)
Minimum accepted packet rate = 0 (at node 0)
Average accepted packet rate = 0
Maximum accepted packet rate = 0 (at node 0)
Minimum injected flit rate = 0 (at node 0)
Average injected flit rate = 0
Maximum injected flit rate = 0 (at node 0)
Minimum accepted flit rate = 0 (at node 0)
Average accepted flit rate = 0
Maximum accepted flit rate = 0 (at node 0)
Total number of injected packets = 0
Total number of injected flits = 0
Average injected packet length = -nan
Total number of accepted packets = 0
Total number of accepted flits = 0
Average accepted packet length = -nan
Total in-flight flits = 223 (0 measured)
===== Time: 40000 =====
Class 0:
Minimum packet latency = nan
Average packet latency = -nan
Maximum packet latency = -nan
Minimum network latency = nan
Average network latency = -nan
Maximum network latency = -nan
Slowest packet = -1
Minimum flit latency = nan
Average flit latency = -nan
Maximum flit latency = -nan
Slowest flit = -1
Minimum fragmentation = nan
Average fragmentation = -nan
Maximum fragmentation = -nan
Minimum injected packet rate = 0 (at node 0)
Average injected packet rate = 0
Maximum injected packet rate = 0 (at node 0)
Minimum accepted packet rate = 0 (at node 0)
Average accepted packet rate = 0
Maximum accepted packet rate = 0 (at node 0)
Minimum injected flit rate = 0 (at node 0)
Average injected flit rate = 0
Maximum injected flit rate = 0 (at node 0)
Minimum accepted flit rate = 0 (at node 0)
Average accepted flit rate = 0
Maximum accepted flit rate = 0 (at node 0)
Total number of injected packets = 0
Total number of injected flits = 0
Average injected packet length = -nan
Total number of accepted packets = 0
Total number of accepted flits = 0
Average accepted packet length = -nan
Total in-flight flits = 223 (0 measured)
===== Time: 50000 =====
Class 0:
Minimum packet latency = nan
Average packet latency = -nan
Maximum packet latency = -nan
Minimum network latency = nan
Average network latency = -nan
Maximum network latency = -nan
Slowest packet = -1
Minimum flit latency = nan
Average flit latency = -nan
Maximum flit latency = -nan
Slowest flit = -1
Minimum fragmentation = nan
Average fragmentation = -nan
Maximum fragmentation = -nan
Minimum injected packet rate = 0 (at node 0)
Average injected packet rate = 0
Maximum injected packet rate = 0 (at node 0)
Minimum accepted packet rate = 0 (at node 0)
Average accepted packet rate = 0
Maximum accepted packet rate = 0 (at node 0)
Minimum injected flit rate = 0 (at node 0)
Average injected flit rate = 0
Maximum injected flit rate = 0 (at node 0)
Minimum accepted flit rate = 0 (at node 0)
Average accepted flit rate = 0
Maximum accepted flit rate = 0 (at node 0)
Total number of injected packets = 0
Total number of injected flits = 0
Average injected packet length = -nan
Total number of accepted packets = 0
Total number of accepted flits = 0
Average accepted packet length = -nan
Total in-flight flits = 223 (0 measured)
===== Time: 60000 =====
Class 0:
Minimum packet latency = nan
Average packet latency = -nan
Maximum packet latency = -nan
Minimum network latency = nan
Average network latency = -nan
Maximum network latency = -nan
Slowest packet = -1
Minimum flit latency = nan
Average flit latency = -nan
Maximum flit latency = -nan
Slowest flit = -1
Minimum fragmentation = nan
Average fragmentation = -nan
Maximum fragmentation = -nan
Minimum injected packet rate = 0 (at node 0)
Average injected packet rate = 0
Maximum injected packet rate = 0 (at node 0)
Minimum accepted packet rate = 0 (at node 0)
Average accepted packet rate = 0
Maximum accepted packet rate = 0 (at node 0)
Minimum injected flit rate = 0 (at node 0)
Average injected flit rate = 0
Maximum injected flit rate = 0 (at node 0)
Minimum accepted flit rate = 0 (at node 0)
Average accepted flit rate = 0
Maximum accepted flit rate = 0 (at node 0)
Total number of injected packets = 0
Total number of injected flits = 0
Average injected packet length = -nan
Total number of accepted packets = 0
Total number of accepted flits = 0
Average accepted packet length = -nan
Total in-flight flits = 223 (0 measured)
Draining remaining packets ...
Class 0:
Remaining flits: 64 65 66 67 92 93 94 95 100 101 [...] (223 flits)
Measured flits: (0 flits)
Class 0:
Remaining flits: 64 65 66 67 92 93 94 95 100 101 [...] (223 flits)
Measured flits: (0 flits)
Class 0:
Remaining flits: 64 65 66 67 92 93 94 95 100 101 [...] (223 flits)
Measured flits: (0 flits)
Class 0:
Remaining flits: 64 65 66 67 92 93 94 95 100 101 [...] (223 flits)
Measured flits: (0 flits)
Class 0:
Remaining flits: 64 65 66 67 92 93 94 95 100 101 [...] (223 flits)
Measured flits: (0 flits)
Class 0:
Remaining flits: 64 65 66 67 92 93 94 95 100 101 [...] (223 flits)
Measured flits: (0 flits)
Class 0:
Remaining flits: 64 65 66 67 92 93 94 95 100 101 [...] (223 flits)
Measured flits: (0 flits)
Class 0:
Remaining flits: 64 65 66 67 92 93 94 95 100 101 [...] (223 flits)
Measured flits: (0 flits)
Class 0:
Remaining flits: 64 65 66 67 92 93 94 95 100 101 [...] (223 flits)
Measured flits: (0 flits)
Class 0:
Remaining flits: 64 65 66 67 92 93 94 95 100 101 [...] (223 flits)
Measured flits: (0 flits)
Class 0:
Remaining flits: 64 65 66 67 92 93 94 95 100 101 [...] (223 flits)
Measured flits: (0 flits)
Class 0:
Remaining flits: 64 65 66 67 92 93 94 95 100 101 [...] (223 flits)
Measured flits: (0 flits)
Class 0:
Remaining flits: 64 65 66 67 92 93 94 95 100 101 [...] (223 flits)
Measured flits: (0 flits)
Class 0:
Remaining flits: 64 65 66 67 92 93 94 95 100 101 [...] (223 flits)
Measured flits: (0 flits)
Class 0:
Remaining flits: 64 65 66 67 92 93 94 95 100 101 [...] (223 flits)
Measured flits: (0 flits)
Class 0:
Remaining flits: 64 65 66 67 92 93 94 95 100 101 [...] (223 flits)
Measured flits: (0 flits)
Class 0:
Remaining flits: 64 65 66 67 92 93 94 95 100 101 [...] (223 flits)
Measured flits: (0 flits)
Class 0:
Remaining flits: 64 65 66 67 92 93 94 95 100 101 [...] (223 flits)
Measured flits: (0 flits)
Class 0:
Remaining flits: 64 65 66 67 92 93 94 95 100 101 [...] (223 flits)
Measured flits: (0 flits)
Class 0:
Remaining flits: 64 65 66 67 92 93 94 95 100 101 [...] (223 flits)
Measured flits: (0 flits)
Class 0:
Remaining flits: 64 65 66 67 92 93 94 95 100 101 [...] (223 flits)
Measured flits: (0 flits)
Class 0:
Remaining flits: 64 65 66 67 92 93 94 95 100 101 [...] (223 flits)
Measured flits: (0 flits)
Class 0:
Remaining flits: 64 65 66 67 92 93 94 95 100 101 [...] (223 flits)
Measured flits: (0 flits)
Class 0:
Remaining flits: 64 65 66 67 92 93 94 95 100 101 [...] (223 flits)
Measured flits: (0 flits)
Class 0:
Remaining flits: 64 65 66 67 92 93 94 95 100 101 [...] (223 flits)
Measured flits: (0 flits)
Class 0:
Remaining flits: 64 65 66 67 92 93 94 95 100 101 [...] (223 flits)
Measured flits: (0 flits)
Class 0:
Remaining flits: 64 65 66 67 92 93 94 95 100 101 [...] (223 flits)
Measured flits: (0 flits)
Class 0:
Remaining flits: 64 65 66 67 92 93 94 95 100 101 [...] (223 flits)
Measured flits: (0 flits)
Class 0:
Remaining flits: 64 65 66 67 92 93 94 95 100 101 [...] (223 flits)
Measured flits: (0 flits)
Class 0:
Remaining flits: 64 65 66 67 92 93 94 95 100 101 [...] (223 flits)
Measured flits: (0 flits)
Class 0:
Remaining flits: 64 65 66 67 92 93 94 95 100 101 [...] (223 flits)
Measured flits: (0 flits)
Class 0:
Remaining flits: 64 65 66 67 92 93 94 95 100 101 [...] (223 flits)
Measured flits: (0 flits)
Class 0:
Remaining flits: 64 65 66 67 92 93 94 95 100 101 [...] (223 flits)
Measured flits: (0 flits)
Class 0:
Remaining flits: 64 65 66 67 92 93 94 95 100 101 [...] (223 flits)
Measured flits: (0 flits)
Class 0:
Remaining flits: 64 65 66 67 92 93 94 95 100 101 [...] (223 flits)
Measured flits: (0 flits)
Class 0:
Remaining flits: 64 65 66 67 92 93 94 95 100 101 [...] (223 flits)
Measured flits: (0 flits)
Class 0:
Remaining flits: 64 65 66 67 92 93 94 95 100 101 [...] (223 flits)
Measured flits: (0 flits)
Class 0:
Remaining flits: 64 65 66 67 92 93 94 95 100 101 [...] (223 flits)
Measured flits: (0 flits)
Class 0:
Remaining flits: 64 65 66 67 92 93 94 95 100 101 [...] (223 flits)
Measured flits: (0 flits)
Class 0:
Remaining flits: 64 65 66 67 92 93 94 95 100 101 [...] (223 flits)
Measured flits: (0 flits)
Class 0:
Remaining flits: 64 65 66 67 92 93 94 95 100 101 [...] (223 flits)
Measured flits: (0 flits)
Class 0:
Remaining flits: 64 65 66 67 92 93 94 95 100 101 [...] (223 flits)
Measured flits: (0 flits)
Class 0:
Remaining flits: 64 65 66 67 92 93 94 95 100 101 [...] (223 flits)
Measured flits: (0 flits)
Class 0:
Remaining flits: 64 65 66 67 92 93 94 95 100 101 [...] (223 flits)
Measured flits: (0 flits)
Class 0:
Remaining flits: 64 65 66 67 92 93 94 95 100 101 [...] (223 flits)
Measured flits: (0 flits)
Class 0:
Remaining flits: 64 65 66 67 92 93 94 95 100 101 [...] (223 flits)
Measured flits: (0 flits)
Class 0:
Remaining flits: 64 65 66 67 92 93 94 95 100 101 [...] (223 flits)
Measured flits: (0 flits)
Class 0:
Remaining flits: 64 65 66 67 92 93 94 95 100 101 [...] (223 flits)
Measured flits: (0 flits)
Class 0:
Remaining flits: 64 65 66 67 92 93 94 95 100 101 [...] (223 flits)
Measured flits: (0 flits)
Class 0:
Remaining flits: 64 65 66 67 92 93 94 95 100 101 [...] (223 flits)
Measured flits: (0 flits)
Class 0:
Remaining flits: 64 65 66 67 92 93 94 95 100 101 [...] (223 flits)
Measured flits: (0 flits)
Class 0:
Remaining flits: 64 65 66 67 92 93 94 95 100 101 [...] (223 flits)
Measured flits: (0 flits)
Class 0:
Remaining flits: 64 65 66 67 92 93 94 95 100 101 [...] (223 flits)
Measured flits: (0 flits)
Class 0:
Remaining flits: 64 65 66 67 92 93 94 95 100 101 [...] (223 flits)
Measured flits: (0 flits)
Class 0:
Remaining flits: 64 65 66 67 92 93 94 95 100 101 [...] (223 flits)
Measured flits: (0 flits)
Class 0:
Remaining flits: 64 65 66 67 92 93 94 95 100 101 [...] (223 flits)
Measured flits: (0 flits)
Class 0:
Remaining flits: 64 65 66 67 92 93 94 95 100 101 [...] (223 flits)
Measured flits: (0 flits)
Class 0:
Remaining flits: 64 65 66 67 92 93 94 95 100 101 [...] (223 flits)
Measured flits: (0 flits)
Class 0:
Remaining flits: 64 65 66 67 92 93 94 95 100 101 [...] (223 flits)
Measured flits: (0 flits)
Class 0:
Remaining flits: 64 65 66 67 92 93 94 95 100 101 [...] (223 flits)
Measured flits: (0 flits)
Class 0:
Remaining flits: 64 65 66 67 92 93 94 95 100 101 [...] (223 flits)
Measured flits: (0 flits)
Class 0:
Remaining flits: 64 65 66 67 92 93 94 95 100 101 [...] (223 flits)
Measured flits: (0 flits)
Class 0:
Remaining flits: 64 65 66 67 92 93 94 95 100 101 [...] (223 flits)
Measured flits: (0 flits)
Class 0:
Remaining flits: 64 65 66 67 92 93 94 95 100 101 [...] (223 flits)
Measured flits: (0 flits)
Class 0:
Remaining flits: 64 65 66 67 92 93 94 95 100 101 [...] (223 flits)
Measured flits: (0 flits)
Class 0:
Remaining flits: 64 65 66 67 92 93 94 95 100 101 [...] (223 flits)
Measured flits: (0 flits)
Class 0:
Remaining flits: 64 65 66 67 92 93 94 95 100 101 [...] (223 flits)
Measured flits: (0 flits)
Class 0:
Remaining flits: 64 65 66 67 92 93 94 95 100 101 [...] (223 flits)
Measured flits: (0 flits)
Class 0:
Remaining flits: 64 65 66 67 92 93 94 95 100 101 [...] (223 flits)
Measured flits: (0 flits)
Class 0:
Remaining flits: 64 65 66 67 92 93 94 95 100 101 [...] (223 flits)
Measured flits: (0 flits)
Class 0:
Remaining flits: 64 65 66 67 92 93 94 95 100 101 [...] (223 flits)
Measured flits: (0 flits)
Class 0:
Remaining flits: 64 65 66 67 92 93 94 95 100 101 [...] (223 flits)
Measured flits: (0 flits)
Class 0:
Remaining flits: 64 65 66 67 92 93 94 95 100 101 [...] (223 flits)
Measured flits: (0 flits)
Class 0:
Remaining flits: 64 65 66 67 92 93 94 95 100 101 [...] (223 flits)
Measured flits: (0 flits)
Class 0:
Remaining flits: 64 65 66 67 92 93 94 95 100 101 [...] (223 flits)
Measured flits: (0 flits)
Class 0:
Remaining flits: 64 65 66 67 92 93 94 95 100 101 [...] (223 flits)
Measured flits: (0 flits)
Class 0:
Remaining flits: 64 65 66 67 92 93 94 95 100 101 [...] (223 flits)
Measured flits: (0 flits)
Class 0:
Remaining flits: 64 65 66 67 92 93 94 95 100 101 [...] (223 flits)
Measured flits: (0 flits)
Class 0:
Remaining flits: 64 65 66 67 92 93 94 95 100 101 [...] (223 flits)
Measured flits: (0 flits)
Class 0:
Remaining flits: 64 65 66 67 92 93 94 95 100 101 [...] (223 flits)
Measured flits: (0 flits)
Class 0:
Remaining flits: 64 65 66 67 92 93 94 95 100 101 [...] (223 flits)
Measured flits: (0 flits)
Class 0:
Remaining flits: 64 65 66 67 92 93 94 95 100 101 [...] (223 flits)
Measured flits: (0 flits)
Class 0:
Remaining flits: 64 65 66 67 92 93 94 95 100 101 [...] (223 flits)
Measured flits: (0 flits)
Class 0:
Remaining flits: 64 65 66 67 92 93 94 95 100 101 [...] (223 flits)
Measured flits: (0 flits)
Class 0:
Remaining flits: 64 65 66 67 92 93 94 95 100 101 [...] (223 flits)
Measured flits: (0 flits)
Class 0:
Remaining flits: 64 65 66 67 92 93 94 95 100 101 [...] (223 flits)
Measured flits: (0 flits)
Class 0:
Remaining flits: 64 65 66 67 92 93 94 95 100 101 [...] (223 flits)
Measured flits: (0 flits)
Class 0:
Remaining flits: 64 65 66 67 92 93 94 95 100 101 [...] (223 flits)
Measured flits: (0 flits)
Class 0:
Remaining flits: 64 65 66 67 92 93 94 95 100 101 [...] (223 flits)
Measured flits: (0 flits)
Class 0:
Remaining flits: 64 65 66 67 92 93 94 95 100 101 [...] (223 flits)
Measured flits: (0 flits)
Class 0:
Remaining flits: 64 65 66 67 92 93 94 95 100 101 [...] (223 flits)
Measured flits: (0 flits)
Class 0:
Remaining flits: 64 65 66 67 92 93 94 95 100 101 [...] (223 flits)
Measured flits: (0 flits)
Class 0:
Remaining flits: 64 65 66 67 92 93 94 95 100 101 [...] (223 flits)
Measured flits: (0 flits)
Class 0:
Remaining flits: 64 65 66 67 92 93 94 95 100 101 [...] (223 flits)
Measured flits: (0 flits)
Class 0:
Remaining flits: 64 65 66 67 92 93 94 95 100 101 [...] (223 flits)
Measured flits: (0 flits)
Class 0:
Remaining flits: 64 65 66 67 92 93 94 95 100 101 [...] (223 flits)
Measured flits: (0 flits)
Class 0:
Remaining flits: 64 65 66 67 92 93 94 95 100 101 [...] (223 flits)
Measured flits: (0 flits)
Class 0:
Remaining flits: 64 65 66 67 92 93 94 95 100 101 [...] (223 flits)
Measured flits: (0 flits)
Class 0:
Remaining flits: 64 65 66 67 92 93 94 95 100 101 [...] (223 flits)
Measured flits: (0 flits)
Class 0:
Remaining flits: 64 65 66 67 92 93 94 95 100 101 [...] (223 flits)
Measured flits: (0 flits)
Class 0:
Remaining flits: 64 65 66 67 92 93 94 95 100 101 [...] (223 flits)
Measured flits: (0 flits)
Time taken is 61000 cycles
====== Traffic class 0 ======

Total number of flits generated = 460, changed lanes = 0
Overall minimum packet latency = nan (1 samples)
Overall average packet latency = -nan (1 samples)
Overall maximum packet latency = -nan (1 samples)
Overall minimum network latency = nan (1 samples)
Overall average network latency = -nan (1 samples)
Overall maximum network latency = -nan (1 samples)
Overall minimum flit latency = nan (1 samples)
Overall average flit latency = -nan (1 samples)
Overall maximum flit latency = -nan (1 samples)
Overall minimum fragmentation = nan (1 samples)
Overall average fragmentation = -nan (1 samples)
Overall maximum fragmentation = -nan (1 samples)
Overall minimum injected packet rate = 0 (1 samples)
Overall average injected packet rate = 0 (1 samples)
Overall maximum injected packet rate = 0 (1 samples)
Overall minimum accepted packet rate = 0 (1 samples)
Overall average accepted packet rate = 0 (1 samples)
Overall maximum accepted packet rate = 0 (1 samples)
Overall minimum injected flit rate = 0 (1 samples)
Overall average injected flit rate = 0 (1 samples)
Overall maximum injected flit rate = 0 (1 samples)
Overall minimum accepted flit rate = 0 (1 samples)
Overall average accepted flit rate = 0 (1 samples)
Overall maximum accepted flit rate = 0 (1 samples)
Overall average injected packet size = -nan (1 samples)
Overall average accepted packet size = -nan (1 samples)
Overall average hops = -nan (1 samples)
Overall throughput of the network (flits/cycle) = 0.0079
Overall throughput of the network (packets/cycle) = 0.0019
Total run time 550.373
