Master: Running timer....
Master: Running SRC....
BEGIN Configuration File: ./examples/bitrev
// Topology

topology = torus;
k = 4;
n = 2;

// Routing
routing_function = dim_order;

// Flow control
num_vcs     = 2;
vc_buf_size = 16;
wait_for_tail_credit = 0;

// Router architecture
vc_allocator = islip;
sw_allocator = islip;
alloc_iters  = 1;

credit_delay   = 1;
routing_delay  = 1;
vc_alloc_delay = 1;
sw_alloc_delay = 1;

input_speedup     = 1;
output_speedup    = 1;
internal_speedup  = 1.0;

vc_busy_when_full = 0;

// Traffic
traffic = uniform;
packet_size = 1;

// Simulation
sim_type = throughput;

injection_rate = 0.05;

END Configuration File: ./examples/bitrev
===== Time: 1000 =====
Class 0:
Minimum packet latency = 7
Average packet latency = 28.6545
Maximum packet latency = 58
Minimum network latency = 8
Average network latency = 29.6545
Maximum network latency = 59
Slowest packet = 20
Minimum flit latency = 8
Average flit latency = 29.6545
Maximum flit latency = 59
Slowest flit = 20
Minimum fragmentation = 0
Average fragmentation = 0
Maximum fragmentation = 0
Minimum injected packet rate = 0.041 (at node 5)
Average injected packet rate = 0.048875
Maximum injected packet rate = 0.054 (at node 1)
Minimum accepted packet rate = 0.034 (at node 11)
Average accepted packet rate = 0.04775
Maximum accepted packet rate = 0.057 (at node 15)
Minimum injected flit rate = 0.041 (at node 5)
Average injected flit rate = 0.048875
Maximum injected flit rate = 0.054 (at node 1)
Minimum accepted flit rate = 0.034 (at node 11)
Average accepted flit rate = 0.04775
Maximum accepted flit rate = 0.057 (at node 15)
Total number of injected packets = 782
Total number of injected flits = 782
Average injected packet length = 1
Total number of accepted packets = 764
Total number of accepted flits = 764
Average accepted packet length = 1
Total in-flight flits = 18 (0 measured)
===== Time: 2000 =====
Class 0:
Minimum packet latency = 7
Average packet latency = 28.3232
Maximum packet latency = 67
Minimum network latency = 8
Average network latency = 29.3232
Maximum network latency = 68
Slowest packet = 1513
Minimum flit latency = 8
Average flit latency = 29.3232
Maximum flit latency = 68
Slowest flit = 1513
Minimum fragmentation = 0
Average fragmentation = 0
Maximum fragmentation = 0
Minimum injected packet rate = 0.0395 (at node 8)
Average injected packet rate = 0.049125
Maximum injected packet rate = 0.057 (at node 12)
Minimum accepted packet rate = 0.0385 (at node 11)
Average accepted packet rate = 0.0485312
Maximum accepted packet rate = 0.0545 (at node 15)
Minimum injected flit rate = 0.0395 (at node 8)
Average injected flit rate = 0.049125
Maximum injected flit rate = 0.057 (at node 12)
Minimum accepted flit rate = 0.0385 (at node 11)
Average accepted flit rate = 0.0485312
Maximum accepted flit rate = 0.0545 (at node 15)
Total number of injected packets = 1572
Total number of injected flits = 1572
Average injected packet length = 1
Total number of accepted packets = 1553
Total number of accepted flits = 1553
Average accepted packet length = 1
Total in-flight flits = 19 (0 measured)
===== Time: 3000 =====
Class 0:
Minimum packet latency = 7
Average packet latency = 28.0134
Maximum packet latency = 65
Minimum network latency = 8
Average network latency = 29.0134
Maximum network latency = 66
Slowest packet = 2318
Minimum flit latency = 8
Average flit latency = 29.0134
Maximum flit latency = 66
Slowest flit = 2318
Minimum fragmentation = 0
Average fragmentation = 0
Maximum fragmentation = 0
Minimum injected packet rate = 0.045 (at node 4)
Average injected packet rate = 0.0518125
Maximum injected packet rate = 0.059 (at node 1)
Minimum accepted packet rate = 0.035 (at node 3)
Average accepted packet rate = 0.051125
Maximum accepted packet rate = 0.064 (at node 6)
Minimum injected flit rate = 0.045 (at node 4)
Average injected flit rate = 0.0518125
Maximum injected flit rate = 0.059 (at node 1)
Minimum accepted flit rate = 0.035 (at node 3)
Average accepted flit rate = 0.051125
Maximum accepted flit rate = 0.064 (at node 6)
Total number of injected packets = 829
Total number of injected flits = 829
Average injected packet length = 1
Total number of accepted packets = 818
Total number of accepted flits = 818
Average accepted packet length = 1
Total in-flight flits = 30 (0 measured)
===== Time: 4000 =====
Class 0:
Minimum packet latency = 7
Average packet latency = 28.1135
Maximum packet latency = 112
Minimum network latency = 8
Average network latency = 29.1135
Maximum network latency = 113
Slowest packet = 2562
Minimum flit latency = 8
Average flit latency = 29.3013
Maximum flit latency = 113
Slowest flit = 2562
Minimum fragmentation = 0
Average fragmentation = 0
Maximum fragmentation = 0
Minimum injected packet rate = 0.035 (at node 0)
Average injected packet rate = 0.0480625
Maximum injected packet rate = 0.057 (at node 9)
Minimum accepted packet rate = 0.035 (at node 14)
Average accepted packet rate = 0.048125
Maximum accepted packet rate = 0.059 (at node 8)
Minimum injected flit rate = 0.035 (at node 0)
Average injected flit rate = 0.0480625
Maximum injected flit rate = 0.057 (at node 9)
Minimum accepted flit rate = 0.035 (at node 14)
Average accepted flit rate = 0.048125
Maximum accepted flit rate = 0.059 (at node 8)
Total number of injected packets = 769
Total number of injected flits = 769
Average injected packet length = 1
Total number of accepted packets = 770
Total number of accepted flits = 770
Average accepted packet length = 1
Total in-flight flits = 29 (29 measured)
===== Time: 5000 =====
Class 0:
Minimum packet latency = 7
Average packet latency = 28.276
Maximum packet latency = 112
Minimum network latency = 8
Average network latency = 29.276
Maximum network latency = 113
Slowest packet = 2562
Minimum flit latency = 8
Average flit latency = 29.3669
Maximum flit latency = 113
Slowest flit = 2562
Minimum fragmentation = 0
Average fragmentation = 0
Maximum fragmentation = 0
Minimum injected packet rate = 0.0365 (at node 0)
Average injected packet rate = 0.0476875
Maximum injected packet rate = 0.0575 (at node 9)
Minimum accepted packet rate = 0.0385 (at node 14)
Average accepted packet rate = 0.0480312
Maximum accepted packet rate = 0.057 (at node 7)
Minimum injected flit rate = 0.0365 (at node 0)
Average injected flit rate = 0.0476875
Maximum injected flit rate = 0.0575 (at node 9)
Minimum accepted flit rate = 0.0385 (at node 14)
Average accepted flit rate = 0.0480312
Maximum accepted flit rate = 0.057 (at node 7)
Total number of injected packets = 1526
Total number of injected flits = 1526
Average injected packet length = 1
Total number of accepted packets = 1537
Total number of accepted flits = 1537
Average accepted packet length = 1
Total in-flight flits = 19 (19 measured)
===== Time: 6000 =====
Class 0:
Minimum packet latency = 7
Average packet latency = 28.1157
Maximum packet latency = 112
Minimum network latency = 8
Average network latency = 29.1157
Maximum network latency = 113
Slowest packet = 2562
Minimum flit latency = 8
Average flit latency = 29.178
Maximum flit latency = 113
Slowest flit = 2562
Minimum fragmentation = 0
Average fragmentation = 0
Maximum fragmentation = 0
Minimum injected packet rate = 0.041 (at node 0)
Average injected packet rate = 0.0481667
Maximum injected packet rate = 0.057 (at node 15)
Minimum accepted packet rate = 0.0406667 (at node 14)
Average accepted packet rate = 0.0483333
Maximum accepted packet rate = 0.056 (at node 8)
Minimum injected flit rate = 0.041 (at node 0)
Average injected flit rate = 0.0481667
Maximum injected flit rate = 0.057 (at node 15)
Minimum accepted flit rate = 0.0406667 (at node 14)
Average accepted flit rate = 0.0483333
Maximum accepted flit rate = 0.056 (at node 8)
Total number of injected packets = 2312
Total number of injected flits = 2312
Average injected packet length = 1
Total number of accepted packets = 2320
Total number of accepted flits = 2320
Average accepted packet length = 1
Total in-flight flits = 22 (22 measured)
===== Time: 7000 =====
Class 0:
Minimum packet latency = 7
Average packet latency = 28.1956
Maximum packet latency = 137
Minimum network latency = 8
Average network latency = 29.1956
Maximum network latency = 138
Slowest packet = 4681
Minimum flit latency = 8
Average flit latency = 29.2409
Maximum flit latency = 138
Slowest flit = 4681
Minimum fragmentation = 0
Average fragmentation = 0
Maximum fragmentation = 0
Minimum injected packet rate = 0.04275 (at node 0)
Average injected packet rate = 0.0488906
Maximum injected packet rate = 0.054 (at node 15)
Minimum accepted packet rate = 0.042 (at node 14)
Average accepted packet rate = 0.0490312
Maximum accepted packet rate = 0.056 (at node 6)
Minimum injected flit rate = 0.04275 (at node 0)
Average injected flit rate = 0.0488906
Maximum injected flit rate = 0.054 (at node 15)
Minimum accepted flit rate = 0.042 (at node 14)
Average accepted flit rate = 0.0490312
Maximum accepted flit rate = 0.056 (at node 6)
Total number of injected packets = 3129
Total number of injected flits = 3129
Average injected packet length = 1
Total number of accepted packets = 3138
Total number of accepted flits = 3138
Average accepted packet length = 1
Total in-flight flits = 21 (21 measured)
Draining remaining packets ...
Class 0:
Remaining flits: 5508 5512 5516 5517 5518 5520 5522 5524 5525 5526 [...] (13 flits)
Measured flits: 5508 5512 5516 5517 5518 5520 5522 5524 5525 5526 [...] (13 flits)
Class 0:
Remaining flits: 5512 5517 5520 5524 5526 5527 5528 (7 flits)
Measured flits: 5512 5517 5520 5524 5526 5527 5528 (7 flits)
Class 0:
Remaining flits: 5520 5524 5527 (3 flits)
Measured flits: 5520 5524 5527 (3 flits)
Class 0:
Remaining flits: (0 flits)
Measured flits: (0 flits)
Class 0:
Remaining flits: (0 flits)
Measured flits: (0 flits)
Class 0:
Remaining flits: (0 flits)
Measured flits: (0 flits)
Class 0:
Remaining flits: (0 flits)
Measured flits: (0 flits)
Class 0:
Remaining flits: (0 flits)
Measured flits: (0 flits)
Class 0:
Remaining flits: (0 flits)
Measured flits: (0 flits)
Class 0:
Remaining flits: (0 flits)
Measured flits: (0 flits)
Class 0:
Remaining flits: (0 flits)
Measured flits: (0 flits)
Class 0:
Remaining flits: (0 flits)
Measured flits: (0 flits)
Class 0:
Remaining flits: (0 flits)
Measured flits: (0 flits)
Class 0:
Remaining flits: (0 flits)
Measured flits: (0 flits)
Class 0:
Remaining flits: (0 flits)
Measured flits: (0 flits)
Class 0:
Remaining flits: (0 flits)
Measured flits: (0 flits)
Class 0:
Remaining flits: (0 flits)
Measured flits: (0 flits)
Class 0:
Remaining flits: (0 flits)
Measured flits: (0 flits)
Class 0:
Remaining flits: (0 flits)
Measured flits: (0 flits)
Class 0:
Remaining flits: (0 flits)
Measured flits: (0 flits)
Class 0:
Remaining flits: (0 flits)
Measured flits: (0 flits)
Class 0:
Remaining flits: (0 flits)
Measured flits: (0 flits)
Class 0:
Remaining flits: (0 flits)
Measured flits: (0 flits)
Class 0:
Remaining flits: (0 flits)
Measured flits: (0 flits)
Class 0:
Remaining flits: (0 flits)
Measured flits: (0 flits)
Class 0:
Remaining flits: (0 flits)
Measured flits: (0 flits)
Class 0:
Remaining flits: (0 flits)
Measured flits: (0 flits)
Class 0:
Remaining flits: (0 flits)
Measured flits: (0 flits)
Class 0:
Remaining flits: (0 flits)
Measured flits: (0 flits)
Class 0:
Remaining flits: (0 flits)
Measured flits: (0 flits)
Class 0:
Remaining flits: (0 flits)
Measured flits: (0 flits)
Class 0:
Remaining flits: (0 flits)
Measured flits: (0 flits)
Class 0:
Remaining flits: (0 flits)
Measured flits: (0 flits)
Class 0:
Remaining flits: (0 flits)
Measured flits: (0 flits)
Class 0:
Remaining flits: (0 flits)
Measured flits: (0 flits)
Class 0:
Remaining flits: (0 flits)
Measured flits: (0 flits)
Class 0:
Remaining flits: (0 flits)
Measured flits: (0 flits)
Class 0:
Remaining flits: (0 flits)
Measured flits: (0 flits)
Class 0:
Remaining flits: (0 flits)
Measured flits: (0 flits)
Class 0:
Remaining flits: (0 flits)
Measured flits: (0 flits)
Class 0:
Remaining flits: (0 flits)
Measured flits: (0 flits)
Class 0:
Remaining flits: (0 flits)
Measured flits: (0 flits)
Class 0:
Remaining flits: (0 flits)
Measured flits: (0 flits)
Class 0:
Remaining flits: (0 flits)
Measured flits: (0 flits)
Class 0:
Remaining flits: (0 flits)
Measured flits: (0 flits)
Class 0:
Remaining flits: (0 flits)
Measured flits: (0 flits)
Class 0:
Remaining flits: (0 flits)
Measured flits: (0 flits)
Class 0:
Remaining flits: (0 flits)
Measured flits: (0 flits)
Class 0:
Remaining flits: (0 flits)
Measured flits: (0 flits)
Class 0:
Remaining flits: (0 flits)
Measured flits: (0 flits)
Class 0:
Remaining flits: (0 flits)
Measured flits: (0 flits)
Class 0:
Remaining flits: (0 flits)
Measured flits: (0 flits)
Class 0:
Remaining flits: (0 flits)
Measured flits: (0 flits)
Class 0:
Remaining flits: (0 flits)
Measured flits: (0 flits)
Class 0:
Remaining flits: (0 flits)
Measured flits: (0 flits)
Class 0:
Remaining flits: (0 flits)
Measured flits: (0 flits)
Class 0:
Remaining flits: (0 flits)
Measured flits: (0 flits)
Class 0:
Remaining flits: (0 flits)
Measured flits: (0 flits)
Class 0:
Remaining flits: (0 flits)
Measured flits: (0 flits)
Class 0:
Remaining flits: (0 flits)
Measured flits: (0 flits)
Class 0:
Remaining flits: (0 flits)
Measured flits: (0 flits)
Class 0:
Remaining flits: (0 flits)
Measured flits: (0 flits)
Class 0:
Remaining flits: (0 flits)
Measured flits: (0 flits)
Class 0:
Remaining flits: (0 flits)
Measured flits: (0 flits)
Class 0:
Remaining flits: (0 flits)
Measured flits: (0 flits)
Class 0:
Remaining flits: (0 flits)
Measured flits: (0 flits)
Class 0:
Remaining flits: (0 flits)
Measured flits: (0 flits)
Class 0:
Remaining flits: (0 flits)
Measured flits: (0 flits)
Class 0:
Remaining flits: (0 flits)
Measured flits: (0 flits)
Class 0:
Remaining flits: (0 flits)
Measured flits: (0 flits)
Class 0:
Remaining flits: (0 flits)
Measured flits: (0 flits)
Class 0:
Remaining flits: (0 flits)
Measured flits: (0 flits)
Class 0:
Remaining flits: (0 flits)
Measured flits: (0 flits)
Class 0:
Remaining flits: (0 flits)
Measured flits: (0 flits)
Class 0:
Remaining flits: (0 flits)
Measured flits: (0 flits)
Class 0:
Remaining flits: (0 flits)
Measured flits: (0 flits)
Class 0:
Remaining flits: (0 flits)
Measured flits: (0 flits)
Class 0:
Remaining flits: (0 flits)
Measured flits: (0 flits)
Class 0:
Remaining flits: (0 flits)
Measured flits: (0 flits)
Class 0:
Remaining flits: (0 flits)
Measured flits: (0 flits)
Class 0:
Remaining flits: (0 flits)
Measured flits: (0 flits)
Class 0:
Remaining flits: (0 flits)
Measured flits: (0 flits)
Class 0:
Remaining flits: (0 flits)
Measured flits: (0 flits)
Class 0:
Remaining flits: (0 flits)
Measured flits: (0 flits)
Class 0:
Remaining flits: (0 flits)
Measured flits: (0 flits)
Class 0:
Remaining flits: (0 flits)
Measured flits: (0 flits)
Class 0:
Remaining flits: (0 flits)
Measured flits: (0 flits)
Class 0:
Remaining flits: (0 flits)
Measured flits: (0 flits)
Class 0:
Remaining flits: (0 flits)
Measured flits: (0 flits)
Class 0:
Remaining flits: (0 flits)
Measured flits: (0 flits)
Class 0:
Remaining flits: (0 flits)
Measured flits: (0 flits)
Class 0:
Remaining flits: (0 flits)
Measured flits: (0 flits)
Class 0:
Remaining flits: (0 flits)
Measured flits: (0 flits)
Class 0:
Remaining flits: (0 flits)
Measured flits: (0 flits)
Class 0:
Remaining flits: (0 flits)
Measured flits: (0 flits)
Class 0:
Remaining flits: (0 flits)
Measured flits: (0 flits)
Class 0:
Remaining flits: (0 flits)
Measured flits: (0 flits)
Class 0:
Remaining flits: (0 flits)
Measured flits: (0 flits)
Class 0:
Remaining flits: (0 flits)
Measured flits: (0 flits)
Class 0:
Remaining flits: (0 flits)
Measured flits: (0 flits)
Class 0:
Remaining flits: (0 flits)
Measured flits: (0 flits)
Time taken is 8000 cycles
====== Traffic class 0 ======

Total number of flits generated = 5530, changed lanes = 4426
Overall minimum packet latency = 7 (1 samples)
Overall average packet latency = 28.2148 (1 samples)
Overall maximum packet latency = 137 (1 samples)
Overall minimum network latency = 8 (1 samples)
Overall average network latency = 29.2148 (1 samples)
Overall maximum network latency = 138 (1 samples)
Overall minimum flit latency = 8 (1 samples)
Overall average flit latency = 29.2596 (1 samples)
Overall maximum flit latency = 138 (1 samples)
Overall minimum fragmentation = 0 (1 samples)
Overall average fragmentation = 0 (1 samples)
Overall maximum fragmentation = 0 (1 samples)
Overall minimum injected packet rate = 0.04275 (1 samples)
Overall average injected packet rate = 0.0488906 (1 samples)
Overall maximum injected packet rate = 0.054 (1 samples)
Overall minimum accepted packet rate = 0.042 (1 samples)
Overall average accepted packet rate = 0.0490312 (1 samples)
Overall maximum accepted packet rate = 0.056 (1 samples)
Overall minimum injected flit rate = 0.04275 (1 samples)
Overall average injected flit rate = 0.0488906 (1 samples)
Overall maximum injected flit rate = 0.054 (1 samples)
Overall minimum accepted flit rate = 0.042 (1 samples)
Overall average accepted flit rate = 0.0490312 (1 samples)
Overall maximum accepted flit rate = 0.056 (1 samples)
Overall average injected packet size = 1 (1 samples)
Overall average accepted packet size = 1 (1 samples)
Overall average hops = 2.96644 (1 samples)
Overall throughput of the network (flits/cycle) = 1.3825
Overall throughput of the network (packets/cycle) = 1.3825
Total run time 11.9128
