Master: Running timer....
Master: Running SRC....
BEGIN Configuration File: ./examples/bitrev
// Topology

topology = torus;
k = 4;
n = 2;

// Routing
routing_function = dim_order;

// Flow control
num_vcs     = 16;
vc_buf_size = 2;
wait_for_tail_credit = 0;

// Router architecture
vc_allocator = islip;
sw_allocator = islip;
alloc_iters  = 1;

credit_delay   = 1;
routing_delay  = 1;
vc_alloc_delay = 1;
sw_alloc_delay = 1;

input_speedup     = 1;
output_speedup    = 1;
internal_speedup  = 1.0;

vc_busy_when_full = 0;

// Traffic
traffic = uniform;
packet_size = 1;

// Simulation
sim_type = throughput;

injection_rate = 0.05;

END Configuration File: ./examples/bitrev
===== Time: 1000 =====
Class 0:
Minimum packet latency = 7
Average packet latency = 27.8613
Maximum packet latency = 63
Minimum network latency = 8
Average network latency = 28.8613
Maximum network latency = 64
Slowest packet = 624
Minimum flit latency = 8
Average flit latency = 28.8613
Maximum flit latency = 64
Slowest flit = 624
Minimum fragmentation = 0
Average fragmentation = 0
Maximum fragmentation = 0
Minimum injected packet rate = 0.041 (at node 5)
Average injected packet rate = 0.048875
Maximum injected packet rate = 0.054 (at node 1)
Minimum accepted packet rate = 0.037 (at node 6)
Average accepted packet rate = 0.04775
Maximum accepted packet rate = 0.059 (at node 2)
Minimum injected flit rate = 0.041 (at node 5)
Average injected flit rate = 0.048875
Maximum injected flit rate = 0.054 (at node 1)
Minimum accepted flit rate = 0.037 (at node 6)
Average accepted flit rate = 0.04775
Maximum accepted flit rate = 0.059 (at node 2)
Total number of injected packets = 782
Total number of injected flits = 782
Average injected packet length = 1
Total number of accepted packets = 764
Total number of accepted flits = 764
Average accepted packet length = 1
Total in-flight flits = 18 (0 measured)
===== Time: 2000 =====
Class 0:
Minimum packet latency = 7
Average packet latency = 28.2626
Maximum packet latency = 63
Minimum network latency = 8
Average network latency = 29.2626
Maximum network latency = 64
Slowest packet = 842
Minimum flit latency = 8
Average flit latency = 29.2626
Maximum flit latency = 64
Slowest flit = 624
Minimum fragmentation = 0
Average fragmentation = 0
Maximum fragmentation = 0
Minimum injected packet rate = 0.0395 (at node 8)
Average injected packet rate = 0.049125
Maximum injected packet rate = 0.057 (at node 12)
Minimum accepted packet rate = 0.0415 (at node 0)
Average accepted packet rate = 0.0484375
Maximum accepted packet rate = 0.0565 (at node 2)
Minimum injected flit rate = 0.0395 (at node 8)
Average injected flit rate = 0.049125
Maximum injected flit rate = 0.057 (at node 12)
Minimum accepted flit rate = 0.0415 (at node 0)
Average accepted flit rate = 0.0484375
Maximum accepted flit rate = 0.0565 (at node 2)
Total number of injected packets = 1572
Total number of injected flits = 1572
Average injected packet length = 1
Total number of accepted packets = 1550
Total number of accepted flits = 1550
Average accepted packet length = 1
Total in-flight flits = 22 (0 measured)
===== Time: 3000 =====
Class 0:
Minimum packet latency = 7
Average packet latency = 28.4275
Maximum packet latency = 166
Minimum network latency = 8
Average network latency = 29.4275
Maximum network latency = 167
Slowest packet = 1534
Minimum flit latency = 8
Average flit latency = 29.4275
Maximum flit latency = 167
Slowest flit = 1534
Minimum fragmentation = 0
Average fragmentation = 0
Maximum fragmentation = 0
Minimum injected packet rate = 0.045 (at node 4)
Average injected packet rate = 0.0518125
Maximum injected packet rate = 0.059 (at node 1)
Minimum accepted packet rate = 0.037 (at node 4)
Average accepted packet rate = 0.0513125
Maximum accepted packet rate = 0.062 (at node 6)
Minimum injected flit rate = 0.045 (at node 4)
Average injected flit rate = 0.0518125
Maximum injected flit rate = 0.059 (at node 1)
Minimum accepted flit rate = 0.037 (at node 4)
Average accepted flit rate = 0.0513125
Maximum accepted flit rate = 0.062 (at node 6)
Total number of injected packets = 829
Total number of injected flits = 829
Average injected packet length = 1
Total number of accepted packets = 821
Total number of accepted flits = 821
Average accepted packet length = 1
Total in-flight flits = 30 (0 measured)
===== Time: 4000 =====
Class 0:
Minimum packet latency = 7
Average packet latency = 28.0014
Maximum packet latency = 115
Minimum network latency = 8
Average network latency = 29.0014
Maximum network latency = 116
Slowest packet = 2558
Minimum flit latency = 8
Average flit latency = 29.2714
Maximum flit latency = 116
Slowest flit = 2558
Minimum fragmentation = 0
Average fragmentation = 0
Maximum fragmentation = 0
Minimum injected packet rate = 0.035 (at node 0)
Average injected packet rate = 0.0480625
Maximum injected packet rate = 0.057 (at node 9)
Minimum accepted packet rate = 0.033 (at node 4)
Average accepted packet rate = 0.048125
Maximum accepted packet rate = 0.061 (at node 11)
Minimum injected flit rate = 0.035 (at node 0)
Average injected flit rate = 0.0480625
Maximum injected flit rate = 0.057 (at node 9)
Minimum accepted flit rate = 0.033 (at node 4)
Average accepted flit rate = 0.048125
Maximum accepted flit rate = 0.061 (at node 11)
Total number of injected packets = 769
Total number of injected flits = 769
Average injected packet length = 1
Total number of accepted packets = 770
Total number of accepted flits = 770
Average accepted packet length = 1
Total in-flight flits = 29 (29 measured)
===== Time: 5000 =====
Class 0:
Minimum packet latency = 7
Average packet latency = 28.9973
Maximum packet latency = 212
Minimum network latency = 8
Average network latency = 29.9973
Maximum network latency = 213
Slowest packet = 3442
Minimum flit latency = 8
Average flit latency = 30.1133
Maximum flit latency = 213
Slowest flit = 3442
Minimum fragmentation = 0
Average fragmentation = 0
Maximum fragmentation = 0
Minimum injected packet rate = 0.0365 (at node 0)
Average injected packet rate = 0.0476875
Maximum injected packet rate = 0.0575 (at node 9)
Minimum accepted packet rate = 0.0355 (at node 4)
Average accepted packet rate = 0.048
Maximum accepted packet rate = 0.0575 (at node 7)
Minimum injected flit rate = 0.0365 (at node 0)
Average injected flit rate = 0.0476875
Maximum injected flit rate = 0.0575 (at node 9)
Minimum accepted flit rate = 0.0355 (at node 4)
Average accepted flit rate = 0.048
Maximum accepted flit rate = 0.0575 (at node 7)
Total number of injected packets = 1526
Total number of injected flits = 1526
Average injected packet length = 1
Total number of accepted packets = 1536
Total number of accepted flits = 1536
Average accepted packet length = 1
Total in-flight flits = 20 (20 measured)
===== Time: 6000 =====
Class 0:
Minimum packet latency = 7
Average packet latency = 29.2305
Maximum packet latency = 212
Minimum network latency = 8
Average network latency = 30.2305
Maximum network latency = 213
Slowest packet = 3442
Minimum flit latency = 8
Average flit latency = 30.3042
Maximum flit latency = 213
Slowest flit = 3442
Minimum fragmentation = 0
Average fragmentation = 0
Maximum fragmentation = 0
Minimum injected packet rate = 0.041 (at node 0)
Average injected packet rate = 0.0481667
Maximum injected packet rate = 0.057 (at node 15)
Minimum accepted packet rate = 0.0386667 (at node 4)
Average accepted packet rate = 0.0483542
Maximum accepted packet rate = 0.0556667 (at node 0)
Minimum injected flit rate = 0.041 (at node 0)
Average injected flit rate = 0.0481667
Maximum injected flit rate = 0.057 (at node 15)
Minimum accepted flit rate = 0.0386667 (at node 4)
Average accepted flit rate = 0.0483542
Maximum accepted flit rate = 0.0556667 (at node 0)
Total number of injected packets = 2312
Total number of injected flits = 2312
Average injected packet length = 1
Total number of accepted packets = 2321
Total number of accepted flits = 2321
Average accepted packet length = 1
Total in-flight flits = 21 (21 measured)
===== Time: 7000 =====
Class 0:
Minimum packet latency = 7
Average packet latency = 29.4355
Maximum packet latency = 238
Minimum network latency = 8
Average network latency = 30.4355
Maximum network latency = 239
Slowest packet = 4777
Minimum flit latency = 8
Average flit latency = 30.488
Maximum flit latency = 239
Slowest flit = 4777
Minimum fragmentation = 0
Average fragmentation = 0
Maximum fragmentation = 0
Minimum injected packet rate = 0.04275 (at node 0)
Average injected packet rate = 0.0488906
Maximum injected packet rate = 0.054 (at node 15)
Minimum accepted packet rate = 0.04125 (at node 4)
Average accepted packet rate = 0.0490156
Maximum accepted packet rate = 0.0575 (at node 0)
Minimum injected flit rate = 0.04275 (at node 0)
Average injected flit rate = 0.0488906
Maximum injected flit rate = 0.054 (at node 15)
Minimum accepted flit rate = 0.04125 (at node 4)
Average accepted flit rate = 0.0490156
Maximum accepted flit rate = 0.0575 (at node 0)
Total number of injected packets = 3129
Total number of injected flits = 3129
Average injected packet length = 1
Total number of accepted packets = 3137
Total number of accepted flits = 3137
Average accepted packet length = 1
Total in-flight flits = 22 (22 measured)
Draining remaining packets ...
Class 0:
Remaining flits: 5494 5505 5507 5511 5512 5513 5515 5518 5519 5520 [...] (17 flits)
Measured flits: 5494 5505 5507 5511 5512 5513 5515 5518 5519 5520 [...] (17 flits)
Class 0:
Remaining flits: 5494 5507 5511 5512 5518 5520 5524 5525 5527 5528 [...] (11 flits)
Measured flits: 5494 5507 5511 5512 5518 5520 5524 5525 5527 5528 [...] (11 flits)
Class 0:
Remaining flits: 5527 5529 (2 flits)
Measured flits: 5527 5529 (2 flits)
Class 0:
Remaining flits: 5527 5529 (2 flits)
Measured flits: 5527 5529 (2 flits)
Class 0:
Remaining flits: 5527 (1 flits)
Measured flits: 5527 (1 flits)
Class 0:
Remaining flits: (0 flits)
Measured flits: (0 flits)
Class 0:
Remaining flits: (0 flits)
Measured flits: (0 flits)
Class 0:
Remaining flits: (0 flits)
Measured flits: (0 flits)
Class 0:
Remaining flits: (0 flits)
Measured flits: (0 flits)
Class 0:
Remaining flits: (0 flits)
Measured flits: (0 flits)
Class 0:
Remaining flits: (0 flits)
Measured flits: (0 flits)
Class 0:
Remaining flits: (0 flits)
Measured flits: (0 flits)
Class 0:
Remaining flits: (0 flits)
Measured flits: (0 flits)
Class 0:
Remaining flits: (0 flits)
Measured flits: (0 flits)
Class 0:
Remaining flits: (0 flits)
Measured flits: (0 flits)
Class 0:
Remaining flits: (0 flits)
Measured flits: (0 flits)
Class 0:
Remaining flits: (0 flits)
Measured flits: (0 flits)
Class 0:
Remaining flits: (0 flits)
Measured flits: (0 flits)
Class 0:
Remaining flits: (0 flits)
Measured flits: (0 flits)
Class 0:
Remaining flits: (0 flits)
Measured flits: (0 flits)
Class 0:
Remaining flits: (0 flits)
Measured flits: (0 flits)
Class 0:
Remaining flits: (0 flits)
Measured flits: (0 flits)
Class 0:
Remaining flits: (0 flits)
Measured flits: (0 flits)
Class 0:
Remaining flits: (0 flits)
Measured flits: (0 flits)
Class 0:
Remaining flits: (0 flits)
Measured flits: (0 flits)
Class 0:
Remaining flits: (0 flits)
Measured flits: (0 flits)
Class 0:
Remaining flits: (0 flits)
Measured flits: (0 flits)
Class 0:
Remaining flits: (0 flits)
Measured flits: (0 flits)
Class 0:
Remaining flits: (0 flits)
Measured flits: (0 flits)
Class 0:
Remaining flits: (0 flits)
Measured flits: (0 flits)
Class 0:
Remaining flits: (0 flits)
Measured flits: (0 flits)
Class 0:
Remaining flits: (0 flits)
Measured flits: (0 flits)
Class 0:
Remaining flits: (0 flits)
Measured flits: (0 flits)
Class 0:
Remaining flits: (0 flits)
Measured flits: (0 flits)
Class 0:
Remaining flits: (0 flits)
Measured flits: (0 flits)
Class 0:
Remaining flits: (0 flits)
Measured flits: (0 flits)
Class 0:
Remaining flits: (0 flits)
Measured flits: (0 flits)
Class 0:
Remaining flits: (0 flits)
Measured flits: (0 flits)
Class 0:
Remaining flits: (0 flits)
Measured flits: (0 flits)
Class 0:
Remaining flits: (0 flits)
Measured flits: (0 flits)
Class 0:
Remaining flits: (0 flits)
Measured flits: (0 flits)
Class 0:
Remaining flits: (0 flits)
Measured flits: (0 flits)
Class 0:
Remaining flits: (0 flits)
Measured flits: (0 flits)
Class 0:
Remaining flits: (0 flits)
Measured flits: (0 flits)
Class 0:
Remaining flits: (0 flits)
Measured flits: (0 flits)
Class 0:
Remaining flits: (0 flits)
Measured flits: (0 flits)
Class 0:
Remaining flits: (0 flits)
Measured flits: (0 flits)
Class 0:
Remaining flits: (0 flits)
Measured flits: (0 flits)
Class 0:
Remaining flits: (0 flits)
Measured flits: (0 flits)
Class 0:
Remaining flits: (0 flits)
Measured flits: (0 flits)
Class 0:
Remaining flits: (0 flits)
Measured flits: (0 flits)
Class 0:
Remaining flits: (0 flits)
Measured flits: (0 flits)
Class 0:
Remaining flits: (0 flits)
Measured flits: (0 flits)
Class 0:
Remaining flits: (0 flits)
Measured flits: (0 flits)
Class 0:
Remaining flits: (0 flits)
Measured flits: (0 flits)
Class 0:
Remaining flits: (0 flits)
Measured flits: (0 flits)
Class 0:
Remaining flits: (0 flits)
Measured flits: (0 flits)
Class 0:
Remaining flits: (0 flits)
Measured flits: (0 flits)
Class 0:
Remaining flits: (0 flits)
Measured flits: (0 flits)
Class 0:
Remaining flits: (0 flits)
Measured flits: (0 flits)
Class 0:
Remaining flits: (0 flits)
Measured flits: (0 flits)
Class 0:
Remaining flits: (0 flits)
Measured flits: (0 flits)
Class 0:
Remaining flits: (0 flits)
Measured flits: (0 flits)
Class 0:
Remaining flits: (0 flits)
Measured flits: (0 flits)
Class 0:
Remaining flits: (0 flits)
Measured flits: (0 flits)
Class 0:
Remaining flits: (0 flits)
Measured flits: (0 flits)
Class 0:
Remaining flits: (0 flits)
Measured flits: (0 flits)
Class 0:
Remaining flits: (0 flits)
Measured flits: (0 flits)
Class 0:
Remaining flits: (0 flits)
Measured flits: (0 flits)
Class 0:
Remaining flits: (0 flits)
Measured flits: (0 flits)
Class 0:
Remaining flits: (0 flits)
Measured flits: (0 flits)
Class 0:
Remaining flits: (0 flits)
Measured flits: (0 flits)
Class 0:
Remaining flits: (0 flits)
Measured flits: (0 flits)
Class 0:
Remaining flits: (0 flits)
Measured flits: (0 flits)
Class 0:
Remaining flits: (0 flits)
Measured flits: (0 flits)
Class 0:
Remaining flits: (0 flits)
Measured flits: (0 flits)
Class 0:
Remaining flits: (0 flits)
Measured flits: (0 flits)
Class 0:
Remaining flits: (0 flits)
Measured flits: (0 flits)
Class 0:
Remaining flits: (0 flits)
Measured flits: (0 flits)
Class 0:
Remaining flits: (0 flits)
Measured flits: (0 flits)
Class 0:
Remaining flits: (0 flits)
Measured flits: (0 flits)
Class 0:
Remaining flits: (0 flits)
Measured flits: (0 flits)
Class 0:
Remaining flits: (0 flits)
Measured flits: (0 flits)
Class 0:
Remaining flits: (0 flits)
Measured flits: (0 flits)
Class 0:
Remaining flits: (0 flits)
Measured flits: (0 flits)
Class 0:
Remaining flits: (0 flits)
Measured flits: (0 flits)
Class 0:
Remaining flits: (0 flits)
Measured flits: (0 flits)
Class 0:
Remaining flits: (0 flits)
Measured flits: (0 flits)
Class 0:
Remaining flits: (0 flits)
Measured flits: (0 flits)
Class 0:
Remaining flits: (0 flits)
Measured flits: (0 flits)
Class 0:
Remaining flits: (0 flits)
Measured flits: (0 flits)
Class 0:
Remaining flits: (0 flits)
Measured flits: (0 flits)
Class 0:
Remaining flits: (0 flits)
Measured flits: (0 flits)
Class 0:
Remaining flits: (0 flits)
Measured flits: (0 flits)
Class 0:
Remaining flits: (0 flits)
Measured flits: (0 flits)
Class 0:
Remaining flits: (0 flits)
Measured flits: (0 flits)
Class 0:
Remaining flits: (0 flits)
Measured flits: (0 flits)
Class 0:
Remaining flits: (0 flits)
Measured flits: (0 flits)
Class 0:
Remaining flits: (0 flits)
Measured flits: (0 flits)
Class 0:
Remaining flits: (0 flits)
Measured flits: (0 flits)
Class 0:
Remaining flits: (0 flits)
Measured flits: (0 flits)
Time taken is 8000 cycles
====== Traffic class 0 ======

Total number of flits generated = 5530, changed lanes = 5481
Overall minimum packet latency = 7 (1 samples)
Overall average packet latency = 29.489 (1 samples)
Overall maximum packet latency = 238 (1 samples)
Overall minimum network latency = 8 (1 samples)
Overall average network latency = 30.489 (1 samples)
Overall maximum network latency = 239 (1 samples)
Overall minimum flit latency = 8 (1 samples)
Overall average flit latency = 30.5407 (1 samples)
Overall maximum flit latency = 239 (1 samples)
Overall minimum fragmentation = 0 (1 samples)
Overall average fragmentation = 0 (1 samples)
Overall maximum fragmentation = 0 (1 samples)
Overall minimum injected packet rate = 0.04275 (1 samples)
Overall average injected packet rate = 0.0488906 (1 samples)
Overall maximum injected packet rate = 0.054 (1 samples)
Overall minimum accepted packet rate = 0.04125 (1 samples)
Overall average accepted packet rate = 0.0490156 (1 samples)
Overall maximum accepted packet rate = 0.0575 (1 samples)
Overall minimum injected flit rate = 0.04275 (1 samples)
Overall average injected flit rate = 0.0488906 (1 samples)
Overall maximum injected flit rate = 0.054 (1 samples)
Overall minimum accepted flit rate = 0.04125 (1 samples)
Overall average accepted flit rate = 0.0490156 (1 samples)
Overall maximum accepted flit rate = 0.0575 (1 samples)
Overall average injected packet size = 1 (1 samples)
Overall average accepted packet size = 1 (1 samples)
Overall average hops = 2.98626 (1 samples)
Overall throughput of the network (flits/cycle) = 1.3825
Overall throughput of the network (packets/cycle) = 1.3825
Total run time 11.1849
