make: Nothing to be done for 'all'.
Master: Running timer....
Master: Running SRC....
BEGIN Configuration File: ./examples/mesh88_lat_blackscholes
// $Id$

topology = mesh;
k = 8;
n = 2;

// Routing
routing_function = planar_adapt;

// Flow control
num_vcs     = 1;
vc_buf_size = 4;
wait_for_tail_credit = 1;

// Router architecture
vc_allocator = islip;
sw_allocator = islip;
alloc_iters  = 1;

credit_delay   = 1;
routing_delay  = 1;
vc_alloc_delay = 1;
sw_alloc_delay = 1;

input_speedup     = 1;
output_speedup    = 1;
internal_speedup  = 1.0;

vc_busy_when_full = 0;

// Traffic
workload=netrace({/home/sarab/Downloads/BookSim_Benchmark_files/fluidanimate_64c_simsmall.tra.bz2,100000000,1,2,1,1,0);

// Simulation
sim_type = workload;

END Configuration File: ./examples/mesh88_lat_blackscholes
Warming up...
===== Time: 10000 =====
Class 0:
Packets read from trace = 160 of 20989170 (0%)
Future packets = 1
Waiting packets = 0
Stalled packets = 135
Packets pending injection = 7
Packets in flight = 10
Minimum packet latency = 57
Average packet latency = 616.429
Maximum packet latency = 1490
Minimum network latency = 57
Average network latency = 615.857
Maximum network latency = 1486
Slowest packet = 6
Minimum flit latency = 29
Average flit latency = 398.844
Maximum flit latency = 1833
Slowest flit = 60
Minimum fragmentation = 0
Average fragmentation = 498.429
Maximum fragmentation = 1392
Minimum injected packet rate = 0 (at node 0)
Average injected packet rate = 2.5e-05
Maximum injected packet rate = 0.0004 (at node 6)
Minimum accepted packet rate = 0 (at node 0)
Average accepted packet rate = 1.09375e-05
Maximum accepted packet rate = 0.0003 (at node 58)
Minimum injected flit rate = 0 (at node 0)
Average injected flit rate = 0.000103125
Maximum injected flit rate = 0.0019 (at node 6)
Minimum accepted flit rate = 0 (at node 0)
Average accepted flit rate = 5e-05
Maximum accepted flit rate = 0.0014 (at node 58)
Total number of injected packets = 16
Total number of injected flits = 66
Average injected packet length = 4.125
Total number of accepted packets = 7
Total number of accepted flits = 32
Average accepted packet length = 4.57143
Total in-flight flits = 41 (0 measured)
===== Time: 20000 =====
Class 0:
Packets read from trace = 313 of 20989170 (0%)
Future packets = 1
Waiting packets = 0
Stalled packets = 272
Packets pending injection = 16
Packets in flight = 16
Minimum packet latency = 57
Average packet latency = 2279
Maximum packet latency = 13917
Minimum network latency = 57
Average network latency = 2278.5
Maximum network latency = 13917
Slowest packet = 3
Minimum flit latency = 29
Average flit latency = 1595.03
Maximum flit latency = 13910
Slowest flit = 7
Minimum fragmentation = 0
Average fragmentation = 2167.12
Maximum fragmentation = 13848
Minimum injected packet rate = 0 (at node 0)
Average injected packet rate = 1.71875e-05
Maximum injected packet rate = 0.0002 (at node 2)
Minimum accepted packet rate = 0 (at node 0)
Average accepted packet rate = 6.25e-06
Maximum accepted packet rate = 0.00015 (at node 58)
Minimum injected flit rate = 0 (at node 0)
Average injected flit rate = 7.42187e-05
Maximum injected flit rate = 0.00095 (at node 6)
Minimum accepted flit rate = 0 (at node 0)
Average accepted flit rate = 2.8125e-05
Maximum accepted flit rate = 0.0007 (at node 58)
Total number of injected packets = 22
Total number of injected flits = 95
Average injected packet length = 4.31818
Total number of accepted packets = 8
Total number of accepted flits = 36
Average accepted packet length = 4.5
Total in-flight flits = 68 (0 measured)
===== Time: 30000 =====
Class 0:
Packets read from trace = 463 of 20989170 (0%)
Future packets = 1
Waiting packets = 0
Stalled packets = 406
Packets pending injection = 30
Packets in flight = 18
Minimum packet latency = 57
Average packet latency = 2279
Maximum packet latency = 13917
Minimum network latency = 57
Average network latency = 2278.5
Maximum network latency = 13917
Slowest packet = 3
Minimum flit latency = 29
Average flit latency = 1595.03
Maximum flit latency = 13910
Slowest flit = 7
Minimum fragmentation = 0
Average fragmentation = 2167.12
Maximum fragmentation = 13848
Minimum injected packet rate = 0 (at node 0)
Average injected packet rate = 1.25e-05
Maximum injected packet rate = 0.000133333 (at node 2)
Minimum accepted packet rate = 0 (at node 0)
Average accepted packet rate = 4.16667e-06
Maximum accepted packet rate = 0.0001 (at node 58)
Minimum injected flit rate = 0 (at node 0)
Average injected flit rate = 5.41667e-05
Maximum injected flit rate = 0.000633333 (at node 6)
Minimum accepted flit rate = 0 (at node 0)
Average accepted flit rate = 1.875e-05
Maximum accepted flit rate = 0.000466667 (at node 58)
Total number of injected packets = 24
Total number of injected flits = 104
Average injected packet length = 4.33333
Total number of accepted packets = 8
Total number of accepted flits = 36
Average accepted packet length = 4.5
Total in-flight flits = 78 (0 measured)
Warmup ends after 30000 cycles.
Beginning measurements...
===== Time: 40000 =====
Class 0:
Packets read from trace = 611 of 20989170 (0%)
Future packets = 1
Waiting packets = 0
Stalled packets = 540
Packets pending injection = 33
Packets in flight = 27
Minimum packet latency = 6475
Average packet latency = 6475
Maximum packet latency = 6475
Minimum network latency = 6475
Average network latency = 6475
Maximum network latency = 6475
Slowest packet = 26
Minimum flit latency = 59
Average flit latency = 10415.1
Maximum flit latency = 27634
Slowest flit = 36
Minimum fragmentation = 6412
Average fragmentation = 6412
Maximum fragmentation = 6412
Minimum injected packet rate = 0 (at node 0)
Average injected packet rate = 1.5625e-05
Maximum injected packet rate = 0.0003 (at node 3)
Minimum accepted packet rate = 0 (at node 0)
Average accepted packet rate = 3.125e-06
Maximum accepted packet rate = 0.0001 (at node 47)
Minimum injected flit rate = 0 (at node 0)
Average injected flit rate = 7.5e-05
Maximum injected flit rate = 0.0014 (at node 3)
Minimum accepted flit rate = 0 (at node 0)
Average accepted flit rate = 2.34375e-05
Maximum accepted flit rate = 0.0006 (at node 58)
Total number of injected packets = 10
Total number of injected flits = 48
Average injected packet length = 4.8
Total number of accepted packets = 2
Total number of accepted flits = 15
Average accepted packet length = 7.5
Total in-flight flits = 118 (46 measured)
===== Time: 50000 =====
Class 0:
Packets read from trace = 754 of 20989170 (0%)
Future packets = 1
Waiting packets = 1
Stalled packets = 671
Packets pending injection = 39
Packets in flight = 29
Minimum packet latency = 1196
Average packet latency = 3835.5
Maximum packet latency = 6475
Minimum network latency = 1196
Average network latency = 3835.5
Maximum network latency = 6475
Slowest packet = 26
Minimum flit latency = 59
Average flit latency = 11553.6
Maximum flit latency = 27948
Slowest flit = 78
Minimum fragmentation = 1131
Average fragmentation = 3771.5
Maximum fragmentation = 6412
Minimum injected packet rate = 0 (at node 0)
Average injected packet rate = 1.17188e-05
Maximum injected packet rate = 0.00015 (at node 3)
Minimum accepted packet rate = 0 (at node 0)
Average accepted packet rate = 3.90625e-06
Maximum accepted packet rate = 0.0001 (at node 58)
Minimum injected flit rate = 0 (at node 0)
Average injected flit rate = 5.78125e-05
Maximum injected flit rate = 0.00075 (at node 51)
Minimum accepted flit rate = 0 (at node 0)
Average accepted flit rate = 2.1875e-05
Maximum accepted flit rate = 0.00045 (at node 58)
Total number of injected packets = 15
Total number of injected flits = 74
Average injected packet length = 4.93333
Total number of accepted packets = 5
Total number of accepted flits = 28
Average accepted packet length = 5.6
Total in-flight flits = 130 (66 measured)
===== Time: 60000 =====
Class 0:
Packets read from trace = 891 of 20989170 (0%)
Future packets = 1
Waiting packets = 0
Stalled packets = 796
Packets pending injection = 45
Packets in flight = 33
Minimum packet latency = 1196
Average packet latency = 9004.4
Maximum packet latency = 22927
Minimum network latency = 1196
Average network latency = 9004.4
Maximum network latency = 22927
Slowest packet = 30
Minimum flit latency = 59
Average flit latency = 10640.5
Maximum flit latency = 27948
Slowest flit = 78
Minimum fragmentation = 13
Average fragmentation = 5367.8
Maximum fragmentation = 17163
Minimum injected packet rate = 0 (at node 0)
Average injected packet rate = 1.14583e-05
Maximum injected packet rate = 0.0001 (at node 3)
Minimum accepted packet rate = 0 (at node 0)
Average accepted packet rate = 4.16667e-06
Maximum accepted packet rate = 6.66667e-05 (at node 23)
Minimum injected flit rate = 0 (at node 0)
Average injected flit rate = 5.57292e-05
Maximum injected flit rate = 0.0005 (at node 51)
Minimum accepted flit rate = 0 (at node 0)
Average accepted flit rate = 2.60417e-05
Maximum accepted flit rate = 0.000466667 (at node 23)
Total number of injected packets = 22
Total number of injected flits = 107
Average injected packet length = 4.86364
Total number of accepted packets = 8
Total number of accepted flits = 50
Average accepted packet length = 6.25
Total in-flight flits = 143 (79 measured)
===== Time: 70000 =====
Class 0:
Packets read from trace = 1020 of 20989170 (0%)
Future packets = 1
Waiting packets = 0
Stalled packets = 920
Packets pending injection = 48
Packets in flight = 35
Minimum packet latency = 1196
Average packet latency = 9004.4
Maximum packet latency = 22927
Minimum network latency = 1196
Average network latency = 9004.4
Maximum network latency = 22927
Slowest packet = 30
Minimum flit latency = 59
Average flit latency = 10640.5
Maximum flit latency = 27948
Slowest flit = 78
Minimum fragmentation = 13
Average fragmentation = 5367.8
Maximum fragmentation = 17163
Minimum injected packet rate = 0 (at node 0)
Average injected packet rate = 9.375e-06
Maximum injected packet rate = 7.5e-05 (at node 3)
Minimum accepted packet rate = 0 (at node 0)
Average accepted packet rate = 3.125e-06
Maximum accepted packet rate = 5e-05 (at node 23)
Minimum injected flit rate = 0 (at node 0)
Average injected flit rate = 4.57031e-05
Maximum injected flit rate = 0.000375 (at node 51)
Minimum accepted flit rate = 0 (at node 0)
Average accepted flit rate = 1.95313e-05
Maximum accepted flit rate = 0.00035 (at node 23)
Total number of injected packets = 24
Total number of injected flits = 117
Average injected packet length = 4.875
Total number of accepted packets = 8
Total number of accepted flits = 50
Average accepted packet length = 6.25
Total in-flight flits = 153 (89 measured)
===== Time: 80000 =====
Class 0:
Packets read from trace = 1208 of 20989170 (0%)
Future packets = 1
Waiting packets = 0
Stalled packets = 1098
Packets pending injection = 55
Packets in flight = 38
Minimum packet latency = 1196
Average packet latency = 9004.4
Maximum packet latency = 22927
Minimum network latency = 1196
Average network latency = 9004.4
Maximum network latency = 22927
Slowest packet = 30
Minimum flit latency = 38
Average flit latency = 9855.15
Maximum flit latency = 27948
Slowest flit = 78
Minimum fragmentation = 13
Average fragmentation = 5367.8
Maximum fragmentation = 17163
Minimum injected packet rate = 0 (at node 0)
Average injected packet rate = 8.4375e-06
Maximum injected packet rate = 6e-05 (at node 3)
Minimum accepted packet rate = 0 (at node 0)
Average accepted packet rate = 2.5e-06
Maximum accepted packet rate = 4e-05 (at node 23)
Minimum injected flit rate = 0 (at node 0)
Average injected flit rate = 4.0625e-05
Maximum injected flit rate = 0.0003 (at node 51)
Minimum accepted flit rate = 0 (at node 0)
Average accepted flit rate = 1.6875e-05
Maximum accepted flit rate = 0.00028 (at node 23)
Total number of injected packets = 27
Total number of injected flits = 130
Average injected packet length = 4.81481
Total number of accepted packets = 8
Total number of accepted flits = 54
Average accepted packet length = 6.75
Total in-flight flits = 164 (100 measured)
===== Time: 90000 =====
Class 0:
Packets read from trace = 1238 of 20989170 (0%)
Future packets = 1
Waiting packets = 0
Stalled packets = 1128
Packets pending injection = 55
Packets in flight = 38
Minimum packet latency = 1196
Average packet latency = 9004.4
Maximum packet latency = 22927
Minimum network latency = 1196
Average network latency = 9004.4
Maximum network latency = 22927
Slowest packet = 30
Minimum flit latency = 38
Average flit latency = 9855.15
Maximum flit latency = 27948
Slowest flit = 78
Minimum fragmentation = 13
Average fragmentation = 5367.8
Maximum fragmentation = 17163
Minimum injected packet rate = 0 (at node 0)
Average injected packet rate = 7.03125e-06
Maximum injected packet rate = 5e-05 (at node 3)
Minimum accepted packet rate = 0 (at node 0)
Average accepted packet rate = 2.08333e-06
Maximum accepted packet rate = 3.33333e-05 (at node 23)
Minimum injected flit rate = 0 (at node 0)
Average injected flit rate = 3.38542e-05
Maximum injected flit rate = 0.00025 (at node 51)
Minimum accepted flit rate = 0 (at node 0)
Average accepted flit rate = 1.40625e-05
Maximum accepted flit rate = 0.000233333 (at node 23)
Total number of injected packets = 27
Total number of injected flits = 130
Average injected packet length = 4.81481
Total number of accepted packets = 8
Total number of accepted flits = 54
Average accepted packet length = 6.75
Total in-flight flits = 164 (100 measured)
===== Time: 100000 =====
Class 0:
Packets read from trace = 1252 of 20989170 (0%)
Future packets = 1
Waiting packets = 0
Stalled packets = 1142
Packets pending injection = 55
Packets in flight = 38
Minimum packet latency = 1196
Average packet latency = 9004.4
Maximum packet latency = 22927
Minimum network latency = 1196
Average network latency = 9004.4
Maximum network latency = 22927
Slowest packet = 30
Minimum flit latency = 38
Average flit latency = 9855.15
Maximum flit latency = 27948
Slowest flit = 78
Minimum fragmentation = 13
Average fragmentation = 5367.8
Maximum fragmentation = 17163
Minimum injected packet rate = 0 (at node 0)
Average injected packet rate = 6.02679e-06
Maximum injected packet rate = 4.28571e-05 (at node 3)
Minimum accepted packet rate = 0 (at node 0)
Average accepted packet rate = 1.78571e-06
Maximum accepted packet rate = 2.85714e-05 (at node 23)
Minimum injected flit rate = 0 (at node 0)
Average injected flit rate = 2.90179e-05
Maximum injected flit rate = 0.000214286 (at node 51)
Minimum accepted flit rate = 0 (at node 0)
Average accepted flit rate = 1.20536e-05
Maximum accepted flit rate = 0.0002 (at node 23)
Total number of injected packets = 27
Total number of injected flits = 130
Average injected packet length = 4.81481
Total number of accepted packets = 8
Total number of accepted flits = 54
Average accepted packet length = 6.75
Total in-flight flits = 164 (100 measured)
===== Time: 110000 =====
Class 0:
Packets read from trace = 1280 of 20989170 (0%)
Future packets = 1
Waiting packets = 0
Stalled packets = 1167
Packets pending injection = 57
Packets in flight = 39
Minimum packet latency = 1196
Average packet latency = 9004.4
Maximum packet latency = 22927
Minimum network latency = 1196
Average network latency = 9004.4
Maximum network latency = 22927
Slowest packet = 30
Minimum flit latency = 38
Average flit latency = 9855.15
Maximum flit latency = 27948
Slowest flit = 78
Minimum fragmentation = 13
Average fragmentation = 5367.8
Maximum fragmentation = 17163
Minimum injected packet rate = 0 (at node 0)
Average injected packet rate = 5.46875e-06
Maximum injected packet rate = 3.75e-05 (at node 3)
Minimum accepted packet rate = 0 (at node 0)
Average accepted packet rate = 1.5625e-06
Maximum accepted packet rate = 2.5e-05 (at node 23)
Minimum injected flit rate = 0 (at node 0)
Average injected flit rate = 2.63672e-05
Maximum injected flit rate = 0.0001875 (at node 51)
Minimum accepted flit rate = 0 (at node 0)
Average accepted flit rate = 1.05469e-05
Maximum accepted flit rate = 0.000175 (at node 23)
Total number of injected packets = 28
Total number of injected flits = 135
Average injected packet length = 4.82143
Total number of accepted packets = 8
Total number of accepted flits = 54
Average accepted packet length = 6.75
Total in-flight flits = 169 (105 measured)
===== Time: 120000 =====
Class 0:
Packets read from trace = 1299 of 20989170 (0%)
Future packets = 1
Waiting packets = 0
Stalled packets = 1186
Packets pending injection = 57
Packets in flight = 39
Minimum packet latency = 1196
Average packet latency = 9004.4
Maximum packet latency = 22927
Minimum network latency = 1196
Average network latency = 9004.4
Maximum network latency = 22927
Slowest packet = 30
Minimum flit latency = 38
Average flit latency = 9855.15
Maximum flit latency = 27948
Slowest flit = 78
Minimum fragmentation = 13
Average fragmentation = 5367.8
Maximum fragmentation = 17163
Minimum injected packet rate = 0 (at node 0)
Average injected packet rate = 4.86111e-06
Maximum injected packet rate = 3.33333e-05 (at node 3)
Minimum accepted packet rate = 0 (at node 0)
Average accepted packet rate = 1.38889e-06
Maximum accepted packet rate = 2.22222e-05 (at node 23)
Minimum injected flit rate = 0 (at node 0)
Average injected flit rate = 2.34375e-05
Maximum injected flit rate = 0.000166667 (at node 51)
Minimum accepted flit rate = 0 (at node 0)
Average accepted flit rate = 9.375e-06
Maximum accepted flit rate = 0.000155556 (at node 23)
Total number of injected packets = 28
Total number of injected flits = 135
Average injected packet length = 4.82143
Total number of accepted packets = 8
Total number of accepted flits = 54
Average accepted packet length = 6.75
Total in-flight flits = 169 (105 measured)
===== Time: 130000 =====
Class 0:
Packets read from trace = 1319 of 20989170 (0%)
Future packets = 1
Waiting packets = 0
Stalled packets = 1206
Packets pending injection = 57
Packets in flight = 39
Minimum packet latency = 1196
Average packet latency = 9004.4
Maximum packet latency = 22927
Minimum network latency = 1196
Average network latency = 9004.4
Maximum network latency = 22927
Slowest packet = 30
Minimum flit latency = 38
Average flit latency = 9855.15
Maximum flit latency = 27948
Slowest flit = 78
Minimum fragmentation = 13
Average fragmentation = 5367.8
Maximum fragmentation = 17163
Minimum injected packet rate = 0 (at node 0)
Average injected packet rate = 4.375e-06
Maximum injected packet rate = 3e-05 (at node 3)
Minimum accepted packet rate = 0 (at node 0)
Average accepted packet rate = 1.25e-06
Maximum accepted packet rate = 2e-05 (at node 23)
Minimum injected flit rate = 0 (at node 0)
Average injected flit rate = 2.10938e-05
Maximum injected flit rate = 0.00015 (at node 51)
Minimum accepted flit rate = 0 (at node 0)
Average accepted flit rate = 8.4375e-06
Maximum accepted flit rate = 0.00014 (at node 23)
Total number of injected packets = 28
Total number of injected flits = 135
Average injected packet length = 4.82143
Total number of accepted packets = 8
Total number of accepted flits = 54
Average accepted packet length = 6.75
Total in-flight flits = 169 (105 measured)
Completed measurements after 130000 cycles.
Draining remaining packets ...
Class 0:
Remaining flits: 13 14 15 16 17 38 39 40 41 42 [...] (169 flits)
Measured flits: 119 120 121 122 123 124 125 126 127 128 [...] (105 flits)
Class 0:
Remaining flits: 13 14 15 16 17 38 39 40 41 42 [...] (169 flits)
Measured flits: 119 120 121 122 123 124 125 126 127 128 [...] (105 flits)
Class 0:
Remaining flits: 13 14 15 16 17 38 39 40 41 42 [...] (163 flits)
Measured flits: 119 120 121 122 123 124 125 126 127 128 [...] (99 flits)
Class 0:
Remaining flits: 13 14 15 16 17 38 39 40 41 42 [...] (149 flits)
Measured flits: 119 120 121 122 123 124 125 126 127 128 [...] (90 flits)
Class 0:
Remaining flits: 13 14 15 16 17 38 39 40 41 42 [...] (135 flits)
Measured flits: 119 120 121 122 123 124 125 126 127 128 [...] (77 flits)
Class 0:
Remaining flits: 13 14 15 16 17 38 39 40 41 42 [...] (126 flits)
Measured flits: 119 120 121 122 123 124 125 126 127 128 [...] (71 flits)
Class 0:
Remaining flits: 13 14 15 16 17 38 39 40 41 42 [...] (121 flits)
Measured flits: 119 120 121 122 123 124 125 126 127 128 [...] (68 flits)
Class 0:
Remaining flits: 13 14 15 16 17 38 39 40 41 42 [...] (115 flits)
Measured flits: 119 120 121 122 123 124 125 126 127 128 [...] (66 flits)
Class 0:
Remaining flits: 13 14 15 16 17 38 39 40 41 42 [...] (108 flits)
Measured flits: 119 120 121 122 123 124 125 126 127 128 [...] (60 flits)
Class 0:
Remaining flits: 13 14 15 16 17 38 39 40 41 42 [...] (97 flits)
Measured flits: 119 120 121 122 123 124 125 126 127 128 [...] (52 flits)
Class 0:
Remaining flits: 13 14 15 16 17 38 39 40 41 42 [...] (89 flits)
Measured flits: 119 120 121 122 123 124 125 126 127 128 [...] (46 flits)
Class 0:
Remaining flits: 13 14 15 16 17 38 39 40 41 42 [...] (80 flits)
Measured flits: 119 120 121 122 123 124 125 126 127 128 [...] (37 flits)
Class 0:
Remaining flits: 13 14 15 16 17 38 39 40 41 42 [...] (70 flits)
Measured flits: 119 120 121 122 123 124 125 126 127 128 [...] (27 flits)
Class 0:
Remaining flits: 13 14 15 16 17 38 39 40 41 42 [...] (69 flits)
Measured flits: 119 120 121 122 123 124 125 126 127 128 [...] (26 flits)
Class 0:
Remaining flits: 13 14 15 16 17 38 39 40 41 42 [...] (69 flits)
Measured flits: 119 120 121 122 123 124 125 126 127 128 [...] (26 flits)
Class 0:
Remaining flits: 13 14 15 16 17 38 39 40 41 42 [...] (69 flits)
Measured flits: 119 120 121 122 123 124 125 126 127 128 [...] (26 flits)
Class 0:
Remaining flits: 13 14 15 16 17 38 39 40 41 42 [...] (69 flits)
Measured flits: 119 120 121 122 123 124 125 126 127 128 [...] (26 flits)
Class 0:
Remaining flits: 13 14 15 16 17 38 39 40 41 42 [...] (69 flits)
Measured flits: 119 120 121 122 123 124 125 126 127 128 [...] (26 flits)
Class 0:
Remaining flits: 13 14 15 16 17 38 39 40 41 42 [...] (69 flits)
Measured flits: 119 120 121 122 123 124 125 126 127 128 [...] (26 flits)
Class 0:
Remaining flits: 13 14 15 16 17 38 39 40 41 42 [...] (69 flits)
Measured flits: 119 120 121 122 123 124 125 126 127 128 [...] (26 flits)
Class 0:
Remaining flits: 13 14 15 16 17 38 39 40 41 42 [...] (69 flits)
Measured flits: 119 120 121 122 123 124 125 126 127 128 [...] (26 flits)
Class 0:
Remaining flits: 13 14 15 16 17 38 39 40 41 42 [...] (69 flits)
Measured flits: 119 120 121 122 123 124 125 126 127 128 [...] (26 flits)
Class 0:
Remaining flits: 13 14 15 16 17 38 39 40 41 42 [...] (69 flits)
Measured flits: 119 120 121 122 123 124 125 126 127 128 [...] (26 flits)
Class 0:
Remaining flits: 13 14 15 16 17 38 39 40 41 42 [...] (69 flits)
Measured flits: 119 120 121 122 123 124 125 126 127 128 [...] (26 flits)
Class 0:
Remaining flits: 13 14 15 16 17 38 39 40 41 42 [...] (69 flits)
Measured flits: 119 120 121 122 123 124 125 126 127 128 [...] (26 flits)
Class 0:
Remaining flits: 13 14 15 16 17 38 39 40 41 42 [...] (69 flits)
Measured flits: 119 120 121 122 123 124 125 126 127 128 [...] (26 flits)
Class 0:
Remaining flits: 13 14 15 16 17 38 39 40 41 42 [...] (69 flits)
Measured flits: 119 120 121 122 123 124 125 126 127 128 [...] (26 flits)
Class 0:
Remaining flits: 13 14 15 16 17 38 39 40 41 42 [...] (69 flits)
Measured flits: 119 120 121 122 123 124 125 126 127 128 [...] (26 flits)
Class 0:
Remaining flits: 13 14 15 16 17 38 39 40 41 42 [...] (69 flits)
Measured flits: 119 120 121 122 123 124 125 126 127 128 [...] (26 flits)
Class 0:
Remaining flits: 13 14 15 16 17 38 39 40 41 42 [...] (69 flits)
Measured flits: 119 120 121 122 123 124 125 126 127 128 [...] (26 flits)
Class 0:
Remaining flits: 13 14 15 16 17 38 39 40 41 42 [...] (69 flits)
Measured flits: 119 120 121 122 123 124 125 126 127 128 [...] (26 flits)
Class 0:
Remaining flits: 13 14 15 16 17 38 39 40 41 42 [...] (69 flits)
Measured flits: 119 120 121 122 123 124 125 126 127 128 [...] (26 flits)
Class 0:
Remaining flits: 13 14 15 16 17 38 39 40 41 42 [...] (69 flits)
Measured flits: 119 120 121 122 123 124 125 126 127 128 [...] (26 flits)
Class 0:
Remaining flits: 13 14 15 16 17 38 39 40 41 42 [...] (69 flits)
Measured flits: 119 120 121 122 123 124 125 126 127 128 [...] (26 flits)
Class 0:
Remaining flits: 13 14 15 16 17 38 39 40 41 42 [...] (69 flits)
Measured flits: 119 120 121 122 123 124 125 126 127 128 [...] (26 flits)
Class 0:
Remaining flits: 13 14 15 16 17 38 39 40 41 42 [...] (69 flits)
Measured flits: 119 120 121 122 123 124 125 126 127 128 [...] (26 flits)
Class 0:
Remaining flits: 13 14 15 16 17 38 39 40 41 42 [...] (69 flits)
Measured flits: 119 120 121 122 123 124 125 126 127 128 [...] (26 flits)
Class 0:
Remaining flits: 13 14 15 16 17 38 39 40 41 42 [...] (69 flits)
Measured flits: 119 120 121 122 123 124 125 126 127 128 [...] (26 flits)
Class 0:
Remaining flits: 13 14 15 16 17 38 39 40 41 42 [...] (69 flits)
Measured flits: 119 120 121 122 123 124 125 126 127 128 [...] (26 flits)
Class 0:
Remaining flits: 13 14 15 16 17 38 39 40 41 42 [...] (69 flits)
Measured flits: 119 120 121 122 123 124 125 126 127 128 [...] (26 flits)
Class 0:
Remaining flits: 13 14 15 16 17 38 39 40 41 42 [...] (69 flits)
Measured flits: 119 120 121 122 123 124 125 126 127 128 [...] (26 flits)
Class 0:
Remaining flits: 13 14 15 16 17 38 39 40 41 42 [...] (69 flits)
Measured flits: 119 120 121 122 123 124 125 126 127 128 [...] (26 flits)
Class 0:
Remaining flits: 13 14 15 16 17 38 39 40 41 42 [...] (69 flits)
Measured flits: 119 120 121 122 123 124 125 126 127 128 [...] (26 flits)
Class 0:
Remaining flits: 13 14 15 16 17 38 39 40 41 42 [...] (69 flits)
Measured flits: 119 120 121 122 123 124 125 126 127 128 [...] (26 flits)
Class 0:
Remaining flits: 13 14 15 16 17 38 39 40 41 42 [...] (69 flits)
Measured flits: 119 120 121 122 123 124 125 126 127 128 [...] (26 flits)
Class 0:
Remaining flits: 13 14 15 16 17 38 39 40 41 42 [...] (69 flits)
Measured flits: 119 120 121 122 123 124 125 126 127 128 [...] (26 flits)
Class 0:
Remaining flits: 13 14 15 16 17 38 39 40 41 42 [...] (69 flits)
Measured flits: 119 120 121 122 123 124 125 126 127 128 [...] (26 flits)
Class 0:
Remaining flits: 13 14 15 16 17 38 39 40 41 42 [...] (69 flits)
Measured flits: 119 120 121 122 123 124 125 126 127 128 [...] (26 flits)
Class 0:
Remaining flits: 13 14 15 16 17 38 39 40 41 42 [...] (69 flits)
Measured flits: 119 120 121 122 123 124 125 126 127 128 [...] (26 flits)
Class 0:
Remaining flits: 13 14 15 16 17 38 39 40 41 42 [...] (69 flits)
Measured flits: 119 120 121 122 123 124 125 126 127 128 [...] (26 flits)
Class 0:
Remaining flits: 13 14 15 16 17 38 39 40 41 42 [...] (69 flits)
Measured flits: 119 120 121 122 123 124 125 126 127 128 [...] (26 flits)
Class 0:
Remaining flits: 13 14 15 16 17 38 39 40 41 42 [...] (69 flits)
Measured flits: 119 120 121 122 123 124 125 126 127 128 [...] (26 flits)
Class 0:
Remaining flits: 13 14 15 16 17 38 39 40 41 42 [...] (69 flits)
Measured flits: 119 120 121 122 123 124 125 126 127 128 [...] (26 flits)
Class 0:
Remaining flits: 13 14 15 16 17 38 39 40 41 42 [...] (69 flits)
Measured flits: 119 120 121 122 123 124 125 126 127 128 [...] (26 flits)
Class 0:
Remaining flits: 13 14 15 16 17 38 39 40 41 42 [...] (69 flits)
Measured flits: 119 120 121 122 123 124 125 126 127 128 [...] (26 flits)
Class 0:
Remaining flits: 13 14 15 16 17 38 39 40 41 42 [...] (69 flits)
Measured flits: 119 120 121 122 123 124 125 126 127 128 [...] (26 flits)
Class 0:
Remaining flits: 13 14 15 16 17 38 39 40 41 42 [...] (69 flits)
Measured flits: 119 120 121 122 123 124 125 126 127 128 [...] (26 flits)
Class 0:
Remaining flits: 13 14 15 16 17 38 39 40 41 42 [...] (69 flits)
Measured flits: 119 120 121 122 123 124 125 126 127 128 [...] (26 flits)
Class 0:
Remaining flits: 13 14 15 16 17 38 39 40 41 42 [...] (69 flits)
Measured flits: 119 120 121 122 123 124 125 126 127 128 [...] (26 flits)
Class 0:
Remaining flits: 13 14 15 16 17 38 39 40 41 42 [...] (69 flits)
Measured flits: 119 120 121 122 123 124 125 126 127 128 [...] (26 flits)
Class 0:
Remaining flits: 13 14 15 16 17 38 39 40 41 42 [...] (69 flits)
Measured flits: 119 120 121 122 123 124 125 126 127 128 [...] (26 flits)
Class 0:
Remaining flits: 13 14 15 16 17 38 39 40 41 42 [...] (69 flits)
Measured flits: 119 120 121 122 123 124 125 126 127 128 [...] (26 flits)
Class 0:
Remaining flits: 13 14 15 16 17 38 39 40 41 42 [...] (69 flits)
Measured flits: 119 120 121 122 123 124 125 126 127 128 [...] (26 flits)
Class 0:
Remaining flits: 13 14 15 16 17 38 39 40 41 42 [...] (69 flits)
Measured flits: 119 120 121 122 123 124 125 126 127 128 [...] (26 flits)
Class 0:
Remaining flits: 13 14 15 16 17 38 39 40 41 42 [...] (69 flits)
Measured flits: 119 120 121 122 123 124 125 126 127 128 [...] (26 flits)
Class 0:
Remaining flits: 13 14 15 16 17 38 39 40 41 42 [...] (69 flits)
Measured flits: 119 120 121 122 123 124 125 126 127 128 [...] (26 flits)
Class 0:
Remaining flits: 13 14 15 16 17 38 39 40 41 42 [...] (69 flits)
Measured flits: 119 120 121 122 123 124 125 126 127 128 [...] (26 flits)
Class 0:
Remaining flits: 13 14 15 16 17 38 39 40 41 42 [...] (69 flits)
Measured flits: 119 120 121 122 123 124 125 126 127 128 [...] (26 flits)
Class 0:
Remaining flits: 13 14 15 16 17 38 39 40 41 42 [...] (69 flits)
Measured flits: 119 120 121 122 123 124 125 126 127 128 [...] (26 flits)
Class 0:
Remaining flits: 13 14 15 16 17 38 39 40 41 42 [...] (69 flits)
Measured flits: 119 120 121 122 123 124 125 126 127 128 [...] (26 flits)
Class 0:
Remaining flits: 13 14 15 16 17 38 39 40 41 42 [...] (69 flits)
Measured flits: 119 120 121 122 123 124 125 126 127 128 [...] (26 flits)
Class 0:
Remaining flits: 13 14 15 16 17 38 39 40 41 42 [...] (69 flits)
Measured flits: 119 120 121 122 123 124 125 126 127 128 [...] (26 flits)
Class 0:
Remaining flits: 13 14 15 16 17 38 39 40 41 42 [...] (69 flits)
Measured flits: 119 120 121 122 123 124 125 126 127 128 [...] (26 flits)
Class 0:
Remaining flits: 13 14 15 16 17 38 39 40 41 42 [...] (69 flits)
Measured flits: 119 120 121 122 123 124 125 126 127 128 [...] (26 flits)
Class 0:
Remaining flits: 13 14 15 16 17 38 39 40 41 42 [...] (69 flits)
Measured flits: 119 120 121 122 123 124 125 126 127 128 [...] (26 flits)
Class 0:
Remaining flits: 13 14 15 16 17 38 39 40 41 42 [...] (69 flits)
Measured flits: 119 120 121 122 123 124 125 126 127 128 [...] (26 flits)
Class 0:
Remaining flits: 13 14 15 16 17 38 39 40 41 42 [...] (69 flits)
Measured flits: 119 120 121 122 123 124 125 126 127 128 [...] (26 flits)
Class 0:
Remaining flits: 13 14 15 16 17 38 39 40 41 42 [...] (69 flits)
Measured flits: 119 120 121 122 123 124 125 126 127 128 [...] (26 flits)
Class 0:
Remaining flits: 13 14 15 16 17 38 39 40 41 42 [...] (69 flits)
Measured flits: 119 120 121 122 123 124 125 126 127 128 [...] (26 flits)
Class 0:
Remaining flits: 13 14 15 16 17 38 39 40 41 42 [...] (69 flits)
Measured flits: 119 120 121 122 123 124 125 126 127 128 [...] (26 flits)
Class 0:
Remaining flits: 13 14 15 16 17 38 39 40 41 42 [...] (69 flits)
Measured flits: 119 120 121 122 123 124 125 126 127 128 [...] (26 flits)
Class 0:
Remaining flits: 13 14 15 16 17 38 39 40 41 42 [...] (69 flits)
Measured flits: 119 120 121 122 123 124 125 126 127 128 [...] (26 flits)
Class 0:
Remaining flits: 13 14 15 16 17 38 39 40 41 42 [...] (69 flits)
Measured flits: 119 120 121 122 123 124 125 126 127 128 [...] (26 flits)
Class 0:
Remaining flits: 13 14 15 16 17 38 39 40 41 42 [...] (69 flits)
Measured flits: 119 120 121 122 123 124 125 126 127 128 [...] (26 flits)
Class 0:
Remaining flits: 13 14 15 16 17 38 39 40 41 42 [...] (69 flits)
Measured flits: 119 120 121 122 123 124 125 126 127 128 [...] (26 flits)
Class 0:
Remaining flits: 13 14 15 16 17 38 39 40 41 42 [...] (69 flits)
Measured flits: 119 120 121 122 123 124 125 126 127 128 [...] (26 flits)
Class 0:
Remaining flits: 13 14 15 16 17 38 39 40 41 42 [...] (69 flits)
Measured flits: 119 120 121 122 123 124 125 126 127 128 [...] (26 flits)
Class 0:
Remaining flits: 13 14 15 16 17 38 39 40 41 42 [...] (69 flits)
Measured flits: 119 120 121 122 123 124 125 126 127 128 [...] (26 flits)
Class 0:
Remaining flits: 13 14 15 16 17 38 39 40 41 42 [...] (69 flits)
Measured flits: 119 120 121 122 123 124 125 126 127 128 [...] (26 flits)
Class 0:
Remaining flits: 13 14 15 16 17 38 39 40 41 42 [...] (69 flits)
Measured flits: 119 120 121 122 123 124 125 126 127 128 [...] (26 flits)
Class 0:
Remaining flits: 13 14 15 16 17 38 39 40 41 42 [...] (69 flits)
Measured flits: 119 120 121 122 123 124 125 126 127 128 [...] (26 flits)
Class 0:
Remaining flits: 13 14 15 16 17 38 39 40 41 42 [...] (69 flits)
Measured flits: 119 120 121 122 123 124 125 126 127 128 [...] (26 flits)
Class 0:
Remaining flits: 13 14 15 16 17 38 39 40 41 42 [...] (69 flits)
Measured flits: 119 120 121 122 123 124 125 126 127 128 [...] (26 flits)
Class 0:
Remaining flits: 13 14 15 16 17 38 39 40 41 42 [...] (69 flits)
Measured flits: 119 120 121 122 123 124 125 126 127 128 [...] (26 flits)
Class 0:
Remaining flits: 13 14 15 16 17 38 39 40 41 42 [...] (69 flits)
Measured flits: 119 120 121 122 123 124 125 126 127 128 [...] (26 flits)
Class 0:
Remaining flits: 13 14 15 16 17 38 39 40 41 42 [...] (69 flits)
Measured flits: 119 120 121 122 123 124 125 126 127 128 [...] (26 flits)
Class 0:
Remaining flits: 13 14 15 16 17 38 39 40 41 42 [...] (69 flits)
Measured flits: 119 120 121 122 123 124 125 126 127 128 [...] (26 flits)
Class 0:
Remaining flits: 13 14 15 16 17 38 39 40 41 42 [...] (69 flits)
Measured flits: 119 120 121 122 123 124 125 126 127 128 [...] (26 flits)
Class 0:
Remaining flits: 13 14 15 16 17 38 39 40 41 42 [...] (69 flits)
Measured flits: 119 120 121 122 123 124 125 126 127 128 [...] (26 flits)
Class 0:
Remaining flits: 13 14 15 16 17 38 39 40 41 42 [...] (69 flits)
Measured flits: 119 120 121 122 123 124 125 126 127 128 [...] (26 flits)
Class 0:
Remaining flits: 13 14 15 16 17 38 39 40 41 42 [...] (69 flits)
Measured flits: 119 120 121 122 123 124 125 126 127 128 [...] (26 flits)
Time taken is 131000 cycles
====== Traffic class 0 ======

Total number of flits generated = 259, changed lanes = 0
Overall minimum packet latency = 1196 (1 samples)
Overall average packet latency = 62184.9 (1 samples)
Overall maximum packet latency = 111262 (1 samples)
Overall minimum network latency = 1196 (1 samples)
Overall average network latency = 60000.6 (1 samples)
Overall maximum network latency = 97183 (1 samples)
Overall minimum flit latency = 38 (1 samples)
Overall average flit latency = 54409.9 (1 samples)
Overall maximum flit latency = 118661 (1 samples)
Overall minimum fragmentation = 4 (1 samples)
Overall average fragmentation = 13442.2 (1 samples)
Overall maximum fragmentation = 76700 (1 samples)
Overall minimum injected packet rate = 0 (1 samples)
Overall average injected packet rate = 4.375e-06 (1 samples)
Overall maximum injected packet rate = 3e-05 (1 samples)
Overall minimum accepted packet rate = 0 (1 samples)
Overall average accepted packet rate = 1.25e-06 (1 samples)
Overall maximum accepted packet rate = 2e-05 (1 samples)
Overall minimum injected flit rate = 0 (1 samples)
Overall average injected flit rate = 2.10938e-05 (1 samples)
Overall maximum injected flit rate = 0.00015 (1 samples)
Overall minimum accepted flit rate = 0 (1 samples)
Overall average accepted flit rate = 8.4375e-06 (1 samples)
Overall maximum accepted flit rate = 0.00014 (1 samples)
Overall average injected packet size = 4.82143 (1 samples)
Overall average accepted packet size = 6.75 (1 samples)
Overall average hops = 7.43478 (1 samples)
Overall throughput of the network (flits/cycle) = 0.0019
Overall throughput of the network (packets/cycle) = 0.00038
Overall workload runtime = 100000 (1 samples)

The distribution of the source packets of size 1 is: 

Source [0] = 0
Source [1] = 0
Source [2] = 2
Source [3] = 0
Source [4] = 0
Source [5] = 0
Source [6] = 0
Source [7] = 0
Source [8] = 0
Source [9] = 0
Source [10] = 0
Source [11] = 0
Source [12] = 0
Source [13] = 0
Source [14] = 0
Source [15] = 0
Source [16] = 0
Source [17] = 0
Source [18] = 0
Source [19] = 0
Source [20] = 0
Source [21] = 0
Source [22] = 0
Source [23] = 0
Source [24] = 0
Source [25] = 0
Source [26] = 0
Source [27] = 0
Source [28] = 0
Source [29] = 0
Source [30] = 0
Source [31] = 0
Source [32] = 0
Source [33] = 0
Source [34] = 0
Source [35] = 0
Source [36] = 0
Source [37] = 0
Source [38] = 1
Source [39] = 0
Source [40] = 0
Source [41] = 0
Source [42] = 0
Source [43] = 0
Source [44] = 0
Source [45] = 0
Source [46] = 0
Source [47] = 0
Source [48] = 0
Source [49] = 0
Source [50] = 0
Source [51] = 0
Source [52] = 0
Source [53] = 0
Source [54] = 0
Source [55] = 0
Source [56] = 0
Source [57] = 0
Source [58] = 1
Source [59] = 0
Source [60] = 0
Source [61] = 0
Source [62] = 0
Source [63] = 0
The distribution of the source packets of size 5 is: 

Source [0] = 0
Source [1] = 1
Source [2] = 3
Source [3] = 3
Source [4] = 3
Source [5] = 3
Source [6] = 5
Source [7] = 2
Source [8] = 0
Source [9] = 1
Source [10] = 1
Source [11] = 0
Source [12] = 0
Source [13] = 0
Source [14] = 0
Source [15] = 0
Source [16] = 0
Source [17] = 1
Source [18] = 0
Source [19] = 0
Source [20] = 0
Source [21] = 2
Source [22] = 1
Source [23] = 1
Source [24] = 0
Source [25] = 1
Source [26] = 0
Source [27] = 0
Source [28] = 0
Source [29] = 1
Source [30] = 0
Source [31] = 0
Source [32] = 1
Source [33] = 0
Source [34] = 0
Source [35] = 0
Source [36] = 0
Source [37] = 0
Source [38] = 2
Source [39] = 0
Source [40] = 3
Source [41] = 1
Source [42] = 0
Source [43] = 0
Source [44] = 1
Source [45] = 1
Source [46] = 0
Source [47] = 0
Source [48] = 1
Source [49] = 1
Source [50] = 0
Source [51] = 3
Source [52] = 1
Source [53] = 0
Source [54] = 4
Source [55] = 0
Source [56] = 0
Source [57] = 2
Source [58] = 0
Source [59] = 1
Source [60] = 0
Source [61] = 0
Source [62] = 0
Source [63] = 0
The distribution of the dest packets of size 1 is: 

dest [0] = 0
dest [1] = 0
dest [2] = 0
dest [3] = 0
dest [4] = 0
dest [5] = 0
dest [6] = 0
dest [7] = 0
dest [8] = 0
dest [9] = 0
dest [10] = 0
dest [11] = 0
dest [12] = 0
dest [13] = 0
dest [14] = 0
dest [15] = 0
dest [16] = 0
dest [17] = 0
dest [18] = 0
dest [19] = 0
dest [20] = 0
dest [21] = 0
dest [22] = 0
dest [23] = 0
dest [24] = 0
dest [25] = 0
dest [26] = 0
dest [27] = 0
dest [28] = 0
dest [29] = 0
dest [30] = 0
dest [31] = 0
dest [32] = 0
dest [33] = 0
dest [34] = 0
dest [35] = 0
dest [36] = 0
dest [37] = 0
dest [38] = 2
dest [39] = 0
dest [40] = 1
dest [41] = 0
dest [42] = 0
dest [43] = 0
dest [44] = 0
dest [45] = 0
dest [46] = 0
dest [47] = 0
dest [48] = 0
dest [49] = 0
dest [50] = 0
dest [51] = 0
dest [52] = 0
dest [53] = 0
dest [54] = 0
dest [55] = 0
dest [56] = 0
dest [57] = 0
dest [58] = 1
dest [59] = 0
dest [60] = 0
dest [61] = 0
dest [62] = 0
dest [63] = 0
The distribution of the dest packets of size 5 is: 

dest [0] = 0
dest [1] = 0
dest [2] = 6
dest [3] = 0
dest [4] = 0
dest [5] = 8
dest [6] = 0
dest [7] = 0
dest [8] = 0
dest [9] = 0
dest [10] = 0
dest [11] = 0
dest [12] = 0
dest [13] = 0
dest [14] = 0
dest [15] = 0
dest [16] = 3
dest [17] = 0
dest [18] = 0
dest [19] = 0
dest [20] = 0
dest [21] = 0
dest [22] = 0
dest [23] = 7
dest [24] = 0
dest [25] = 0
dest [26] = 0
dest [27] = 0
dest [28] = 0
dest [29] = 0
dest [30] = 0
dest [31] = 0
dest [32] = 0
dest [33] = 0
dest [34] = 0
dest [35] = 0
dest [36] = 0
dest [37] = 0
dest [38] = 0
dest [39] = 0
dest [40] = 6
dest [41] = 0
dest [42] = 0
dest [43] = 0
dest [44] = 0
dest [45] = 0
dest [46] = 0
dest [47] = 7
dest [48] = 0
dest [49] = 0
dest [50] = 0
dest [51] = 0
dest [52] = 0
dest [53] = 0
dest [54] = 0
dest [55] = 0
dest [56] = 0
dest [57] = 0
dest [58] = 11
dest [59] = 0
dest [60] = 0
dest [61] = 3
dest [62] = 0
dest [63] = 0Total run time 1189.09
