make: Nothing to be done for 'all'.
Master: Running timer....
Master: Running SRC....
BEGIN Configuration File: ./examples/bitrev
// Topology

topology = mesh;
k = 4;
n = 2;

// Routing
routing_function = dor;

// Flow control
num_vcs     = 1;
vc_buf_size = 4;
wait_for_tail_credit = 0;

// Router architecture
vc_allocator = islip;
sw_allocator = islip;
alloc_iters  = 1;

credit_delay   = 1;
routing_delay  = 1;
vc_alloc_delay = 1;
sw_alloc_delay = 1;

input_speedup     = 1;
output_speedup    = 1;
internal_speedup  = 1.0;

vc_busy_when_full = 0;

// Traffic
traffic = neighbor;
packet_size = 2;

// Simulation
sim_type = throughput;

injection_rate = 0.05;

END Configuration File: ./examples/bitrev
===== Time: 1000 =====
Class 0:
Minimum packet latency = 23
Average packet latency = 46.5294
Maximum packet latency = 133
Minimum network latency = 24
Average network latency = 47.0695
Maximum network latency = 134
Slowest packet = 39
Minimum flit latency = 22
Average flit latency = 43.5053
Maximum flit latency = 133
Slowest flit = 79
Minimum fragmentation = 1
Average fragmentation = 4.92914
Maximum fragmentation = 99
Minimum injected packet rate = 0.035 (at node 8)
Average injected packet rate = 0.048875
Maximum injected packet rate = 0.062 (at node 9)
Minimum accepted packet rate = 0.035 (at node 13)
Average accepted packet rate = 0.04675
Maximum accepted packet rate = 0.062 (at node 14)
Minimum injected flit rate = 0.07 (at node 8)
Average injected flit rate = 0.09775
Maximum injected flit rate = 0.124 (at node 9)
Minimum accepted flit rate = 0.07 (at node 13)
Average accepted flit rate = 0.09375
Maximum accepted flit rate = 0.124 (at node 14)
Total number of injected packets = 782
Total number of injected flits = 1564
Average injected packet length = 2
Total number of accepted packets = 748
Total number of accepted flits = 1500
Average accepted packet length = 2.00535
Total in-flight flits = 64 (0 measured)
===== Time: 2000 =====
Class 0:
Minimum packet latency = 23
Average packet latency = 46.3283
Maximum packet latency = 215
Minimum network latency = 24
Average network latency = 46.9055
Maximum network latency = 216
Slowest packet = 1307
Minimum flit latency = 22
Average flit latency = 43.3827
Maximum flit latency = 215
Slowest flit = 2615
Minimum fragmentation = 1
Average fragmentation = 4.88274
Maximum fragmentation = 137
Minimum injected packet rate = 0.0385 (at node 8)
Average injected packet rate = 0.049125
Maximum injected packet rate = 0.0585 (at node 12)
Minimum accepted packet rate = 0.0375 (at node 13)
Average accepted packet rate = 0.0479687
Maximum accepted packet rate = 0.0555 (at node 1)
Minimum injected flit rate = 0.077 (at node 8)
Average injected flit rate = 0.09825
Maximum injected flit rate = 0.117 (at node 12)
Minimum accepted flit rate = 0.0755 (at node 13)
Average accepted flit rate = 0.0960312
Maximum accepted flit rate = 0.111 (at node 1)
Total number of injected packets = 1572
Total number of injected flits = 3144
Average injected packet length = 2
Total number of accepted packets = 1535
Total number of accepted flits = 3073
Average accepted packet length = 2.00195
Total in-flight flits = 71 (0 measured)
===== Time: 3000 =====
Class 0:
Minimum packet latency = 23
Average packet latency = 46.5061
Maximum packet latency = 114
Minimum network latency = 24
Average network latency = 47.118
Maximum network latency = 110
Slowest packet = 2157
Minimum flit latency = 22
Average flit latency = 43.9295
Maximum flit latency = 107
Slowest flit = 4315
Minimum fragmentation = 1
Average fragmentation = 4.19951
Maximum fragmentation = 64
Minimum injected packet rate = 0.038 (at node 4)
Average injected packet rate = 0.0518125
Maximum injected packet rate = 0.061 (at node 5)
Minimum accepted packet rate = 0.04 (at node 9)
Average accepted packet rate = 0.051375
Maximum accepted packet rate = 0.061 (at node 1)
Minimum injected flit rate = 0.076 (at node 4)
Average injected flit rate = 0.103563
Maximum injected flit rate = 0.122 (at node 5)
Minimum accepted flit rate = 0.079 (at node 9)
Average accepted flit rate = 0.102875
Maximum accepted flit rate = 0.122 (at node 1)
Total number of injected packets = 829
Total number of injected flits = 1657
Average injected packet length = 1.99879
Total number of accepted packets = 822
Total number of accepted flits = 1646
Average accepted packet length = 2.00243
Total in-flight flits = 83 (0 measured)
===== Time: 4000 =====
Class 0:
Minimum packet latency = 23
Average packet latency = 46.1721
Maximum packet latency = 155
Minimum network latency = 24
Average network latency = 46.6831
Maximum network latency = 149
Slowest packet = 2599
Minimum flit latency = 22
Average flit latency = 43.6395
Maximum flit latency = 147
Slowest flit = 5199
Minimum fragmentation = 1
Average fragmentation = 4.48907
Maximum fragmentation = 91
Minimum injected packet rate = 0.035 (at node 7)
Average injected packet rate = 0.0480625
Maximum injected packet rate = 0.059 (at node 9)
Minimum accepted packet rate = 0.035 (at node 8)
Average accepted packet rate = 0.0485
Maximum accepted packet rate = 0.059 (at node 14)
Minimum injected flit rate = 0.07 (at node 7)
Average injected flit rate = 0.0959375
Maximum injected flit rate = 0.117 (at node 9)
Minimum accepted flit rate = 0.07 (at node 8)
Average accepted flit rate = 0.09675
Maximum accepted flit rate = 0.118 (at node 14)
Total number of injected packets = 769
Total number of injected flits = 1535
Average injected packet length = 1.9961
Total number of accepted packets = 776
Total number of accepted flits = 1548
Average accepted packet length = 1.99485
Total in-flight flits = 73 (73 measured)
===== Time: 5000 =====
Class 0:
Minimum packet latency = 23
Average packet latency = 45.8387
Maximum packet latency = 183
Minimum network latency = 24
Average network latency = 46.4391
Maximum network latency = 183
Slowest packet = 3195
Minimum flit latency = 22
Average flit latency = 43.2814
Maximum flit latency = 182
Slowest flit = 6391
Minimum fragmentation = 1
Average fragmentation = 4.48327
Maximum fragmentation = 130
Minimum injected packet rate = 0.036 (at node 7)
Average injected packet rate = 0.0476875
Maximum injected packet rate = 0.056 (at node 9)
Minimum accepted packet rate = 0.0355 (at node 8)
Average accepted packet rate = 0.0480625
Maximum accepted packet rate = 0.0565 (at node 14)
Minimum injected flit rate = 0.072 (at node 7)
Average injected flit rate = 0.0954062
Maximum injected flit rate = 0.112 (at node 9)
Minimum accepted flit rate = 0.0715 (at node 8)
Average accepted flit rate = 0.0961875
Maximum accepted flit rate = 0.113 (at node 14)
Total number of injected packets = 1526
Total number of injected flits = 3053
Average injected packet length = 2.00066
Total number of accepted packets = 1538
Total number of accepted flits = 3078
Average accepted packet length = 2.0013
Total in-flight flits = 57 (57 measured)
===== Time: 6000 =====
Class 0:
Minimum packet latency = 23
Average packet latency = 45.831
Maximum packet latency = 183
Minimum network latency = 24
Average network latency = 46.432
Maximum network latency = 183
Slowest packet = 3195
Minimum flit latency = 22
Average flit latency = 43.1783
Maximum flit latency = 182
Slowest flit = 6391
Minimum fragmentation = 1
Average fragmentation = 4.53398
Maximum fragmentation = 130
Minimum injected packet rate = 0.0423333 (at node 7)
Average injected packet rate = 0.0481667
Maximum injected packet rate = 0.0543333 (at node 9)
Minimum accepted packet rate = 0.0396667 (at node 8)
Average accepted packet rate = 0.048125
Maximum accepted packet rate = 0.0546667 (at node 14)
Minimum injected flit rate = 0.0846667 (at node 7)
Average injected flit rate = 0.0963125
Maximum injected flit rate = 0.108667 (at node 9)
Minimum accepted flit rate = 0.0793333 (at node 8)
Average accepted flit rate = 0.0962708
Maximum accepted flit rate = 0.109333 (at node 14)
Total number of injected packets = 2312
Total number of injected flits = 4623
Average injected packet length = 1.99957
Total number of accepted packets = 2310
Total number of accepted flits = 4621
Average accepted packet length = 2.00043
Total in-flight flits = 86 (86 measured)
===== Time: 7000 =====
Class 0:
Minimum packet latency = 23
Average packet latency = 46.2493
Maximum packet latency = 183
Minimum network latency = 24
Average network latency = 46.8271
Maximum network latency = 183
Slowest packet = 3195
Minimum flit latency = 22
Average flit latency = 43.5538
Maximum flit latency = 182
Slowest flit = 6391
Minimum fragmentation = 1
Average fragmentation = 4.521
Maximum fragmentation = 130
Minimum injected packet rate = 0.03225 (at node 7)
Average injected packet rate = 0.0483281
Maximum injected packet rate = 0.05475 (at node 9)
Minimum accepted packet rate = 0.02975 (at node 8)
Average accepted packet rate = 0.0483125
Maximum accepted packet rate = 0.05525 (at node 14)
Minimum injected flit rate = 0.06425 (at node 7)
Average injected flit rate = 0.0966094
Maximum injected flit rate = 0.1095 (at node 9)
Minimum accepted flit rate = 0.0595 (at node 8)
Average accepted flit rate = 0.0966094
Maximum accepted flit rate = 0.11075 (at node 14)
Total number of injected packets = 3093
Total number of injected flits = 6183
Average injected packet length = 1.99903
Total number of accepted packets = 3092
Total number of accepted flits = 6183
Average accepted packet length = 1.99968
Total in-flight flits = 86 (86 measured)
Draining remaining packets ...
Class 0:
Remaining flits: 9242 9243 9270 9271 9280 9281 9330 9331 9338 9339 [...] (75 flits)
Measured flits: 9242 9243 9270 9271 9280 9281 9330 9331 9338 9339 [...] (75 flits)
Class 0:
Remaining flits: 9242 9243 9270 9271 9280 9281 9330 9331 9338 9339 [...] (61 flits)
Measured flits: 9242 9243 9270 9271 9280 9281 9330 9331 9338 9339 [...] (61 flits)
Class 0:
Remaining flits: 9242 9243 9270 9271 9280 9281 9330 9331 9338 9339 [...] (44 flits)
Measured flits: 9242 9243 9270 9271 9280 9281 9330 9331 9338 9339 [...] (44 flits)
Class 0:
Remaining flits: 9242 9243 9270 9271 9280 9281 9330 9331 9338 9339 [...] (35 flits)
Measured flits: 9242 9243 9270 9271 9280 9281 9330 9331 9338 9339 [...] (35 flits)
Class 0:
Remaining flits: 9242 9243 9270 9271 9280 9281 9330 9331 9338 9339 [...] (31 flits)
Measured flits: 9242 9243 9270 9271 9280 9281 9330 9331 9338 9339 [...] (31 flits)
Class 0:
Remaining flits: 9242 9243 9270 9271 9280 9281 9330 9331 9338 9339 [...] (28 flits)
Measured flits: 9242 9243 9270 9271 9280 9281 9330 9331 9338 9339 [...] (28 flits)
Class 0:
Remaining flits: 9242 9243 9270 9271 9280 9281 9330 9331 9338 9339 [...] (28 flits)
Measured flits: 9242 9243 9270 9271 9280 9281 9330 9331 9338 9339 [...] (28 flits)
Class 0:
Remaining flits: 9242 9243 9270 9271 9280 9281 9330 9331 9338 9339 [...] (28 flits)
Measured flits: 9242 9243 9270 9271 9280 9281 9330 9331 9338 9339 [...] (28 flits)
Class 0:
Remaining flits: 9242 9243 9270 9271 9280 9281 9330 9331 9338 9339 [...] (28 flits)
Measured flits: 9242 9243 9270 9271 9280 9281 9330 9331 9338 9339 [...] (28 flits)
Class 0:
Remaining flits: 9242 9243 9270 9271 9280 9281 9330 9331 9338 9339 [...] (28 flits)
Measured flits: 9242 9243 9270 9271 9280 9281 9330 9331 9338 9339 [...] (28 flits)
Class 0:
Remaining flits: 9242 9243 9270 9271 9280 9281 9330 9331 9338 9339 [...] (28 flits)
Measured flits: 9242 9243 9270 9271 9280 9281 9330 9331 9338 9339 [...] (28 flits)
Class 0:
Remaining flits: 9242 9243 9270 9271 9280 9281 9330 9331 9338 9339 [...] (28 flits)
Measured flits: 9242 9243 9270 9271 9280 9281 9330 9331 9338 9339 [...] (28 flits)
Class 0:
Remaining flits: 9242 9243 9270 9271 9280 9281 9330 9331 9338 9339 [...] (28 flits)
Measured flits: 9242 9243 9270 9271 9280 9281 9330 9331 9338 9339 [...] (28 flits)
Class 0:
Remaining flits: 9242 9243 9270 9271 9280 9281 9330 9331 9338 9339 [...] (28 flits)
Measured flits: 9242 9243 9270 9271 9280 9281 9330 9331 9338 9339 [...] (28 flits)
Class 0:
Remaining flits: 9242 9243 9270 9271 9280 9281 9330 9331 9338 9339 [...] (28 flits)
Measured flits: 9242 9243 9270 9271 9280 9281 9330 9331 9338 9339 [...] (28 flits)
Class 0:
Remaining flits: 9242 9243 9270 9271 9280 9281 9330 9331 9338 9339 [...] (28 flits)
Measured flits: 9242 9243 9270 9271 9280 9281 9330 9331 9338 9339 [...] (28 flits)
Class 0:
Remaining flits: 9242 9243 9270 9271 9280 9281 9330 9331 9338 9339 [...] (28 flits)
Measured flits: 9242 9243 9270 9271 9280 9281 9330 9331 9338 9339 [...] (28 flits)
Class 0:
Remaining flits: 9242 9243 9270 9271 9280 9281 9330 9331 9338 9339 [...] (28 flits)
Measured flits: 9242 9243 9270 9271 9280 9281 9330 9331 9338 9339 [...] (28 flits)
Class 0:
Remaining flits: 9242 9243 9270 9271 9280 9281 9330 9331 9338 9339 [...] (28 flits)
Measured flits: 9242 9243 9270 9271 9280 9281 9330 9331 9338 9339 [...] (28 flits)
Class 0:
Remaining flits: 9242 9243 9270 9271 9280 9281 9330 9331 9338 9339 [...] (28 flits)
Measured flits: 9242 9243 9270 9271 9280 9281 9330 9331 9338 9339 [...] (28 flits)
Class 0:
Remaining flits: 9242 9243 9270 9271 9280 9281 9330 9331 9338 9339 [...] (28 flits)
Measured flits: 9242 9243 9270 9271 9280 9281 9330 9331 9338 9339 [...] (28 flits)
Class 0:
Remaining flits: 9242 9243 9270 9271 9280 9281 9330 9331 9338 9339 [...] (28 flits)
Measured flits: 9242 9243 9270 9271 9280 9281 9330 9331 9338 9339 [...] (28 flits)
Class 0:
Remaining flits: 9242 9243 9270 9271 9280 9281 9330 9331 9338 9339 [...] (28 flits)
Measured flits: 9242 9243 9270 9271 9280 9281 9330 9331 9338 9339 [...] (28 flits)
Class 0:
Remaining flits: 9242 9243 9270 9271 9280 9281 9330 9331 9338 9339 [...] (28 flits)
Measured flits: 9242 9243 9270 9271 9280 9281 9330 9331 9338 9339 [...] (28 flits)
Class 0:
Remaining flits: 9242 9243 9270 9271 9280 9281 9330 9331 9338 9339 [...] (28 flits)
Measured flits: 9242 9243 9270 9271 9280 9281 9330 9331 9338 9339 [...] (28 flits)
Class 0:
Remaining flits: 9242 9243 9270 9271 9280 9281 9330 9331 9338 9339 [...] (28 flits)
Measured flits: 9242 9243 9270 9271 9280 9281 9330 9331 9338 9339 [...] (28 flits)
Class 0:
Remaining flits: 9242 9243 9270 9271 9280 9281 9330 9331 9338 9339 [...] (28 flits)
Measured flits: 9242 9243 9270 9271 9280 9281 9330 9331 9338 9339 [...] (28 flits)
Class 0:
Remaining flits: 9242 9243 9270 9271 9280 9281 9330 9331 9338 9339 [...] (28 flits)
Measured flits: 9242 9243 9270 9271 9280 9281 9330 9331 9338 9339 [...] (28 flits)
Class 0:
Remaining flits: 9242 9243 9270 9271 9280 9281 9330 9331 9338 9339 [...] (28 flits)
Measured flits: 9242 9243 9270 9271 9280 9281 9330 9331 9338 9339 [...] (28 flits)
Class 0:
Remaining flits: 9242 9243 9270 9271 9280 9281 9330 9331 9338 9339 [...] (28 flits)
Measured flits: 9242 9243 9270 9271 9280 9281 9330 9331 9338 9339 [...] (28 flits)
Class 0:
Remaining flits: 9242 9243 9270 9271 9280 9281 9330 9331 9338 9339 [...] (28 flits)
Measured flits: 9242 9243 9270 9271 9280 9281 9330 9331 9338 9339 [...] (28 flits)
Class 0:
Remaining flits: 9242 9243 9270 9271 9280 9281 9330 9331 9338 9339 [...] (28 flits)
Measured flits: 9242 9243 9270 9271 9280 9281 9330 9331 9338 9339 [...] (28 flits)
Class 0:
Remaining flits: 9242 9243 9270 9271 9280 9281 9330 9331 9338 9339 [...] (28 flits)
Measured flits: 9242 9243 9270 9271 9280 9281 9330 9331 9338 9339 [...] (28 flits)
Class 0:
Remaining flits: 9242 9243 9270 9271 9280 9281 9330 9331 9338 9339 [...] (28 flits)
Measured flits: 9242 9243 9270 9271 9280 9281 9330 9331 9338 9339 [...] (28 flits)
Class 0:
Remaining flits: 9242 9243 9270 9271 9280 9281 9330 9331 9338 9339 [...] (28 flits)
Measured flits: 9242 9243 9270 9271 9280 9281 9330 9331 9338 9339 [...] (28 flits)
Class 0:
Remaining flits: 9242 9243 9270 9271 9280 9281 9330 9331 9338 9339 [...] (28 flits)
Measured flits: 9242 9243 9270 9271 9280 9281 9330 9331 9338 9339 [...] (28 flits)
Class 0:
Remaining flits: 9242 9243 9270 9271 9280 9281 9330 9331 9338 9339 [...] (28 flits)
Measured flits: 9242 9243 9270 9271 9280 9281 9330 9331 9338 9339 [...] (28 flits)
Class 0:
Remaining flits: 9242 9243 9270 9271 9280 9281 9330 9331 9338 9339 [...] (28 flits)
Measured flits: 9242 9243 9270 9271 9280 9281 9330 9331 9338 9339 [...] (28 flits)
Class 0:
Remaining flits: 9242 9243 9270 9271 9280 9281 9330 9331 9338 9339 [...] (28 flits)
Measured flits: 9242 9243 9270 9271 9280 9281 9330 9331 9338 9339 [...] (28 flits)
Class 0:
Remaining flits: 9242 9243 9270 9271 9280 9281 9330 9331 9338 9339 [...] (28 flits)
Measured flits: 9242 9243 9270 9271 9280 9281 9330 9331 9338 9339 [...] (28 flits)
Class 0:
Remaining flits: 9242 9243 9270 9271 9280 9281 9330 9331 9338 9339 [...] (28 flits)
Measured flits: 9242 9243 9270 9271 9280 9281 9330 9331 9338 9339 [...] (28 flits)
Class 0:
Remaining flits: 9242 9243 9270 9271 9280 9281 9330 9331 9338 9339 [...] (28 flits)
Measured flits: 9242 9243 9270 9271 9280 9281 9330 9331 9338 9339 [...] (28 flits)
Class 0:
Remaining flits: 9242 9243 9270 9271 9280 9281 9330 9331 9338 9339 [...] (28 flits)
Measured flits: 9242 9243 9270 9271 9280 9281 9330 9331 9338 9339 [...] (28 flits)
Class 0:
Remaining flits: 9242 9243 9270 9271 9280 9281 9330 9331 9338 9339 [...] (28 flits)
Measured flits: 9242 9243 9270 9271 9280 9281 9330 9331 9338 9339 [...] (28 flits)
Class 0:
Remaining flits: 9242 9243 9270 9271 9280 9281 9330 9331 9338 9339 [...] (28 flits)
Measured flits: 9242 9243 9270 9271 9280 9281 9330 9331 9338 9339 [...] (28 flits)
Class 0:
Remaining flits: 9242 9243 9270 9271 9280 9281 9330 9331 9338 9339 [...] (28 flits)
Measured flits: 9242 9243 9270 9271 9280 9281 9330 9331 9338 9339 [...] (28 flits)
Class 0:
Remaining flits: 9242 9243 9270 9271 9280 9281 9330 9331 9338 9339 [...] (28 flits)
Measured flits: 9242 9243 9270 9271 9280 9281 9330 9331 9338 9339 [...] (28 flits)
Class 0:
Remaining flits: 9242 9243 9270 9271 9280 9281 9330 9331 9338 9339 [...] (28 flits)
Measured flits: 9242 9243 9270 9271 9280 9281 9330 9331 9338 9339 [...] (28 flits)
Class 0:
Remaining flits: 9242 9243 9270 9271 9280 9281 9330 9331 9338 9339 [...] (28 flits)
Measured flits: 9242 9243 9270 9271 9280 9281 9330 9331 9338 9339 [...] (28 flits)
Class 0:
Remaining flits: 9242 9243 9270 9271 9280 9281 9330 9331 9338 9339 [...] (28 flits)
Measured flits: 9242 9243 9270 9271 9280 9281 9330 9331 9338 9339 [...] (28 flits)
Class 0:
Remaining flits: 9242 9243 9270 9271 9280 9281 9330 9331 9338 9339 [...] (28 flits)
Measured flits: 9242 9243 9270 9271 9280 9281 9330 9331 9338 9339 [...] (28 flits)
Class 0:
Remaining flits: 9242 9243 9270 9271 9280 9281 9330 9331 9338 9339 [...] (28 flits)
Measured flits: 9242 9243 9270 9271 9280 9281 9330 9331 9338 9339 [...] (28 flits)
Class 0:
Remaining flits: 9242 9243 9270 9271 9280 9281 9330 9331 9338 9339 [...] (28 flits)
Measured flits: 9242 9243 9270 9271 9280 9281 9330 9331 9338 9339 [...] (28 flits)
Class 0:
Remaining flits: 9242 9243 9270 9271 9280 9281 9330 9331 9338 9339 [...] (28 flits)
Measured flits: 9242 9243 9270 9271 9280 9281 9330 9331 9338 9339 [...] (28 flits)
Class 0:
Remaining flits: 9242 9243 9270 9271 9280 9281 9330 9331 9338 9339 [...] (28 flits)
Measured flits: 9242 9243 9270 9271 9280 9281 9330 9331 9338 9339 [...] (28 flits)
Class 0:
Remaining flits: 9242 9243 9270 9271 9280 9281 9330 9331 9338 9339 [...] (28 flits)
Measured flits: 9242 9243 9270 9271 9280 9281 9330 9331 9338 9339 [...] (28 flits)
Class 0:
Remaining flits: 9242 9243 9270 9271 9280 9281 9330 9331 9338 9339 [...] (28 flits)
Measured flits: 9242 9243 9270 9271 9280 9281 9330 9331 9338 9339 [...] (28 flits)
Class 0:
Remaining flits: 9242 9243 9270 9271 9280 9281 9330 9331 9338 9339 [...] (28 flits)
Measured flits: 9242 9243 9270 9271 9280 9281 9330 9331 9338 9339 [...] (28 flits)
Class 0:
Remaining flits: 9242 9243 9270 9271 9280 9281 9330 9331 9338 9339 [...] (28 flits)
Measured flits: 9242 9243 9270 9271 9280 9281 9330 9331 9338 9339 [...] (28 flits)
Class 0:
Remaining flits: 9242 9243 9270 9271 9280 9281 9330 9331 9338 9339 [...] (28 flits)
Measured flits: 9242 9243 9270 9271 9280 9281 9330 9331 9338 9339 [...] (28 flits)
Class 0:
Remaining flits: 9242 9243 9270 9271 9280 9281 9330 9331 9338 9339 [...] (28 flits)
Measured flits: 9242 9243 9270 9271 9280 9281 9330 9331 9338 9339 [...] (28 flits)
Class 0:
Remaining flits: 9242 9243 9270 9271 9280 9281 9330 9331 9338 9339 [...] (28 flits)
Measured flits: 9242 9243 9270 9271 9280 9281 9330 9331 9338 9339 [...] (28 flits)
Class 0:
Remaining flits: 9242 9243 9270 9271 9280 9281 9330 9331 9338 9339 [...] (28 flits)
Measured flits: 9242 9243 9270 9271 9280 9281 9330 9331 9338 9339 [...] (28 flits)
Class 0:
Remaining flits: 9242 9243 9270 9271 9280 9281 9330 9331 9338 9339 [...] (28 flits)
Measured flits: 9242 9243 9270 9271 9280 9281 9330 9331 9338 9339 [...] (28 flits)
Class 0:
Remaining flits: 9242 9243 9270 9271 9280 9281 9330 9331 9338 9339 [...] (28 flits)
Measured flits: 9242 9243 9270 9271 9280 9281 9330 9331 9338 9339 [...] (28 flits)
Class 0:
Remaining flits: 9242 9243 9270 9271 9280 9281 9330 9331 9338 9339 [...] (28 flits)
Measured flits: 9242 9243 9270 9271 9280 9281 9330 9331 9338 9339 [...] (28 flits)
Class 0:
Remaining flits: 9242 9243 9270 9271 9280 9281 9330 9331 9338 9339 [...] (28 flits)
Measured flits: 9242 9243 9270 9271 9280 9281 9330 9331 9338 9339 [...] (28 flits)
Class 0:
Remaining flits: 9242 9243 9270 9271 9280 9281 9330 9331 9338 9339 [...] (28 flits)
Measured flits: 9242 9243 9270 9271 9280 9281 9330 9331 9338 9339 [...] (28 flits)
Class 0:
Remaining flits: 9242 9243 9270 9271 9280 9281 9330 9331 9338 9339 [...] (28 flits)
Measured flits: 9242 9243 9270 9271 9280 9281 9330 9331 9338 9339 [...] (28 flits)
Class 0:
Remaining flits: 9242 9243 9270 9271 9280 9281 9330 9331 9338 9339 [...] (28 flits)
Measured flits: 9242 9243 9270 9271 9280 9281 9330 9331 9338 9339 [...] (28 flits)
Class 0:
Remaining flits: 9242 9243 9270 9271 9280 9281 9330 9331 9338 9339 [...] (28 flits)
Measured flits: 9242 9243 9270 9271 9280 9281 9330 9331 9338 9339 [...] (28 flits)
Class 0:
Remaining flits: 9242 9243 9270 9271 9280 9281 9330 9331 9338 9339 [...] (28 flits)
Measured flits: 9242 9243 9270 9271 9280 9281 9330 9331 9338 9339 [...] (28 flits)
Class 0:
Remaining flits: 9242 9243 9270 9271 9280 9281 9330 9331 9338 9339 [...] (28 flits)
Measured flits: 9242 9243 9270 9271 9280 9281 9330 9331 9338 9339 [...] (28 flits)
Class 0:
Remaining flits: 9242 9243 9270 9271 9280 9281 9330 9331 9338 9339 [...] (28 flits)
Measured flits: 9242 9243 9270 9271 9280 9281 9330 9331 9338 9339 [...] (28 flits)
Class 0:
Remaining flits: 9242 9243 9270 9271 9280 9281 9330 9331 9338 9339 [...] (28 flits)
Measured flits: 9242 9243 9270 9271 9280 9281 9330 9331 9338 9339 [...] (28 flits)
Class 0:
Remaining flits: 9242 9243 9270 9271 9280 9281 9330 9331 9338 9339 [...] (28 flits)
Measured flits: 9242 9243 9270 9271 9280 9281 9330 9331 9338 9339 [...] (28 flits)
Class 0:
Remaining flits: 9242 9243 9270 9271 9280 9281 9330 9331 9338 9339 [...] (28 flits)
Measured flits: 9242 9243 9270 9271 9280 9281 9330 9331 9338 9339 [...] (28 flits)
Class 0:
Remaining flits: 9242 9243 9270 9271 9280 9281 9330 9331 9338 9339 [...] (28 flits)
Measured flits: 9242 9243 9270 9271 9280 9281 9330 9331 9338 9339 [...] (28 flits)
Class 0:
Remaining flits: 9242 9243 9270 9271 9280 9281 9330 9331 9338 9339 [...] (28 flits)
Measured flits: 9242 9243 9270 9271 9280 9281 9330 9331 9338 9339 [...] (28 flits)
Class 0:
Remaining flits: 9242 9243 9270 9271 9280 9281 9330 9331 9338 9339 [...] (28 flits)
Measured flits: 9242 9243 9270 9271 9280 9281 9330 9331 9338 9339 [...] (28 flits)
Class 0:
Remaining flits: 9242 9243 9270 9271 9280 9281 9330 9331 9338 9339 [...] (28 flits)
Measured flits: 9242 9243 9270 9271 9280 9281 9330 9331 9338 9339 [...] (28 flits)
Class 0:
Remaining flits: 9242 9243 9270 9271 9280 9281 9330 9331 9338 9339 [...] (28 flits)
Measured flits: 9242 9243 9270 9271 9280 9281 9330 9331 9338 9339 [...] (28 flits)
Class 0:
Remaining flits: 9242 9243 9270 9271 9280 9281 9330 9331 9338 9339 [...] (28 flits)
Measured flits: 9242 9243 9270 9271 9280 9281 9330 9331 9338 9339 [...] (28 flits)
Class 0:
Remaining flits: 9242 9243 9270 9271 9280 9281 9330 9331 9338 9339 [...] (28 flits)
Measured flits: 9242 9243 9270 9271 9280 9281 9330 9331 9338 9339 [...] (28 flits)
Class 0:
Remaining flits: 9242 9243 9270 9271 9280 9281 9330 9331 9338 9339 [...] (28 flits)
Measured flits: 9242 9243 9270 9271 9280 9281 9330 9331 9338 9339 [...] (28 flits)
Class 0:
Remaining flits: 9242 9243 9270 9271 9280 9281 9330 9331 9338 9339 [...] (28 flits)
Measured flits: 9242 9243 9270 9271 9280 9281 9330 9331 9338 9339 [...] (28 flits)
Class 0:
Remaining flits: 9242 9243 9270 9271 9280 9281 9330 9331 9338 9339 [...] (28 flits)
Measured flits: 9242 9243 9270 9271 9280 9281 9330 9331 9338 9339 [...] (28 flits)
Class 0:
Remaining flits: 9242 9243 9270 9271 9280 9281 9330 9331 9338 9339 [...] (28 flits)
Measured flits: 9242 9243 9270 9271 9280 9281 9330 9331 9338 9339 [...] (28 flits)
Class 0:
Remaining flits: 9242 9243 9270 9271 9280 9281 9330 9331 9338 9339 [...] (28 flits)
Measured flits: 9242 9243 9270 9271 9280 9281 9330 9331 9338 9339 [...] (28 flits)
Class 0:
Remaining flits: 9242 9243 9270 9271 9280 9281 9330 9331 9338 9339 [...] (28 flits)
Measured flits: 9242 9243 9270 9271 9280 9281 9330 9331 9338 9339 [...] (28 flits)
Class 0:
Remaining flits: 9242 9243 9270 9271 9280 9281 9330 9331 9338 9339 [...] (28 flits)
Measured flits: 9242 9243 9270 9271 9280 9281 9330 9331 9338 9339 [...] (28 flits)
Class 0:
Remaining flits: 9242 9243 9270 9271 9280 9281 9330 9331 9338 9339 [...] (28 flits)
Measured flits: 9242 9243 9270 9271 9280 9281 9330 9331 9338 9339 [...] (28 flits)
Class 0:
Remaining flits: 9242 9243 9270 9271 9280 9281 9330 9331 9338 9339 [...] (28 flits)
Measured flits: 9242 9243 9270 9271 9280 9281 9330 9331 9338 9339 [...] (28 flits)
Class 0:
Remaining flits: 9242 9243 9270 9271 9280 9281 9330 9331 9338 9339 [...] (28 flits)
Measured flits: 9242 9243 9270 9271 9280 9281 9330 9331 9338 9339 [...] (28 flits)
Class 0:
Remaining flits: 9242 9243 9270 9271 9280 9281 9330 9331 9338 9339 [...] (28 flits)
Measured flits: 9242 9243 9270 9271 9280 9281 9330 9331 9338 9339 [...] (28 flits)
Class 0:
Remaining flits: 9242 9243 9270 9271 9280 9281 9330 9331 9338 9339 [...] (28 flits)
Measured flits: 9242 9243 9270 9271 9280 9281 9330 9331 9338 9339 [...] (28 flits)
Class 0:
Remaining flits: 9242 9243 9270 9271 9280 9281 9330 9331 9338 9339 [...] (28 flits)
Measured flits: 9242 9243 9270 9271 9280 9281 9330 9331 9338 9339 [...] (28 flits)
Class 0:
Remaining flits: 9242 9243 9270 9271 9280 9281 9330 9331 9338 9339 [...] (28 flits)
Measured flits: 9242 9243 9270 9271 9280 9281 9330 9331 9338 9339 [...] (28 flits)
Class 0:
Remaining flits: 9242 9243 9270 9271 9280 9281 9330 9331 9338 9339 [...] (28 flits)
Measured flits: 9242 9243 9270 9271 9280 9281 9330 9331 9338 9339 [...] (28 flits)
Class 0:
Remaining flits: 9242 9243 9270 9271 9280 9281 9330 9331 9338 9339 [...] (28 flits)
Measured flits: 9242 9243 9270 9271 9280 9281 9330 9331 9338 9339 [...] (28 flits)
Class 0:
Remaining flits: 9242 9243 9270 9271 9280 9281 9330 9331 9338 9339 [...] (28 flits)
Measured flits: 9242 9243 9270 9271 9280 9281 9330 9331 9338 9339 [...] (28 flits)
Time taken is 8000 cycles
====== Traffic class 0 ======

Total number of flits generated = 10988, changed lanes = 0
Overall minimum packet latency = 23 (1 samples)
Overall average packet latency = 46.2757 (1 samples)
Overall maximum packet latency = 183 (1 samples)
Overall minimum network latency = 24 (1 samples)
Overall average network latency = 46.8511 (1 samples)
Overall maximum network latency = 183 (1 samples)
Overall minimum flit latency = 22 (1 samples)
Overall average flit latency = 43.5664 (1 samples)
Overall maximum flit latency = 182 (1 samples)
Overall minimum fragmentation = 1 (1 samples)
Overall average fragmentation = 4.52308 (1 samples)
Overall maximum fragmentation = 130 (1 samples)
Overall minimum injected packet rate = 0.03225 (1 samples)
Overall average injected packet rate = 0.0483281 (1 samples)
Overall maximum injected packet rate = 0.05475 (1 samples)
Overall minimum accepted packet rate = 0.02975 (1 samples)
Overall average accepted packet rate = 0.0483125 (1 samples)
Overall maximum accepted packet rate = 0.05525 (1 samples)
Overall minimum injected flit rate = 0.06425 (1 samples)
Overall average injected flit rate = 0.0966094 (1 samples)
Overall maximum injected flit rate = 0.1095 (1 samples)
Overall minimum accepted flit rate = 0.0595 (1 samples)
Overall average accepted flit rate = 0.0966094 (1 samples)
Overall maximum accepted flit rate = 0.11075 (1 samples)
Overall average injected packet size = 1.99903 (1 samples)
Overall average accepted packet size = 1.99968 (1 samples)
Overall average hops = 3.97789 (1 samples)
Overall throughput of the network (flits/cycle) = 2.74
Overall throughput of the network (packets/cycle) = 1.36925
Total run time 115.69
