make: Nothing to be done for 'all'.
Master: Running timer....
Master: Running SRC....
BEGIN Configuration File: ./examples/bitrev
// Topology

topology = mesh;
k = 4;
n = 2;

// Routing
routing_function = dor;

// Flow control
num_vcs     = 1;
vc_buf_size = 4;
wait_for_tail_credit = 0;

// Router architecture
vc_allocator = islip;
sw_allocator = islip;
alloc_iters  = 1;

credit_delay   = 1;
routing_delay  = 1;
vc_alloc_delay = 1;
sw_alloc_delay = 1;

input_speedup     = 1;
output_speedup    = 1;
internal_speedup  = 1.0;

vc_busy_when_full = 0;

// Traffic
traffic = neighbor;
packet_size = 1;

// Simulation
sim_type = throughput;

injection_rate = 0.05;

END Configuration File: ./examples/bitrev
===== Time: 10000 =====
Class 0:
Minimum packet latency = 21
Average packet latency = 39.1606
Maximum packet latency = 105
Minimum network latency = 22
Average network latency = 40.1601
Maximum network latency = 106
Slowest packet = 7314
Minimum flit latency = 22
Average flit latency = 40.1601
Maximum flit latency = 106
Slowest flit = 7314
Minimum fragmentation = 0
Average fragmentation = 0
Maximum fragmentation = 0
Minimum injected packet rate = 0.0459 (at node 0)
Average injected packet rate = 0.0494687
Maximum injected packet rate = 0.0515 (at node 12)
Minimum accepted packet rate = 0.0458 (at node 5)
Average accepted packet rate = 0.0493
Maximum accepted packet rate = 0.0513 (at node 1)
Minimum injected flit rate = 0.0459 (at node 0)
Average injected flit rate = 0.0494687
Maximum injected flit rate = 0.0515 (at node 12)
Minimum accepted flit rate = 0.0458 (at node 5)
Average accepted flit rate = 0.0493
Maximum accepted flit rate = 0.0513 (at node 1)
Total number of injected packets = 7915
Total number of injected flits = 7915
Average injected packet length = 1
Total number of accepted packets = 7888
Total number of accepted flits = 7888
Average accepted packet length = 1
Total in-flight flits = 27 (0 measured)
===== Time: 20000 =====
Class 0:
Minimum packet latency = 21
Average packet latency = 39.2165
Maximum packet latency = 157
Minimum network latency = 22
Average network latency = 40.2156
Maximum network latency = 158
Slowest packet = 10301
Minimum flit latency = 22
Average flit latency = 40.2156
Maximum flit latency = 158
Slowest flit = 10301
Minimum fragmentation = 0
Average fragmentation = 0
Maximum fragmentation = 0
Minimum injected packet rate = 0.0481 (at node 8)
Average injected packet rate = 0.0500375
Maximum injected packet rate = 0.0527 (at node 12)
Minimum accepted packet rate = 0.04795 (at node 13)
Average accepted packet rate = 0.0499375
Maximum accepted packet rate = 0.0525 (at node 1)
Minimum injected flit rate = 0.0481 (at node 8)
Average injected flit rate = 0.0500375
Maximum injected flit rate = 0.0527 (at node 12)
Minimum accepted flit rate = 0.04795 (at node 13)
Average accepted flit rate = 0.0499375
Maximum accepted flit rate = 0.0525 (at node 1)
Total number of injected packets = 16012
Total number of injected flits = 16012
Average injected packet length = 1
Total number of accepted packets = 15980
Total number of accepted flits = 15980
Average accepted packet length = 1
Total in-flight flits = 32 (0 measured)
===== Time: 30000 =====
Class 0:
Minimum packet latency = 21
Average packet latency = 39.018
Maximum packet latency = 89
Minimum network latency = 22
Average network latency = 40.0175
Maximum network latency = 90
Slowest packet = 21016
Minimum flit latency = 22
Average flit latency = 40.0175
Maximum flit latency = 90
Slowest flit = 18270
Minimum fragmentation = 0
Average fragmentation = 0
Maximum fragmentation = 0
Minimum injected packet rate = 0.045 (at node 15)
Average injected packet rate = 0.0495875
Maximum injected packet rate = 0.0542 (at node 13)
Minimum accepted packet rate = 0.0448 (at node 0)
Average accepted packet rate = 0.0496562
Maximum accepted packet rate = 0.0546 (at node 2)
Minimum injected flit rate = 0.045 (at node 15)
Average injected flit rate = 0.0495875
Maximum injected flit rate = 0.0542 (at node 13)
Minimum accepted flit rate = 0.0448 (at node 0)
Average accepted flit rate = 0.0496562
Maximum accepted flit rate = 0.0546 (at node 2)
Total number of injected packets = 7934
Total number of injected flits = 7934
Average injected packet length = 1
Total number of accepted packets = 7945
Total number of accepted flits = 7945
Average accepted packet length = 1
Total in-flight flits = 21 (0 measured)
===== Time: 40000 =====
Class 0:
Minimum packet latency = 21
Average packet latency = 39.3702
Maximum packet latency = 107
Minimum network latency = 22
Average network latency = 40.3692
Maximum network latency = 108
Slowest packet = 27410
Minimum flit latency = 22
Average flit latency = 40.3779
Maximum flit latency = 108
Slowest flit = 27410
Minimum fragmentation = 0
Average fragmentation = 0
Maximum fragmentation = 0
Minimum injected packet rate = 0.0473 (at node 6)
Average injected packet rate = 0.0501938
Maximum injected packet rate = 0.0544 (at node 14)
Minimum accepted packet rate = 0.0473 (at node 11)
Average accepted packet rate = 0.0501187
Maximum accepted packet rate = 0.054 (at node 3)
Minimum injected flit rate = 0.0473 (at node 6)
Average injected flit rate = 0.0501938
Maximum injected flit rate = 0.0544 (at node 14)
Minimum accepted flit rate = 0.0473 (at node 11)
Average accepted flit rate = 0.0501187
Maximum accepted flit rate = 0.054 (at node 3)
Total number of injected packets = 8031
Total number of injected flits = 8031
Average injected packet length = 1
Total number of accepted packets = 8019
Total number of accepted flits = 8019
Average accepted packet length = 1
Total in-flight flits = 33 (33 measured)
===== Time: 50000 =====
Class 0:
Minimum packet latency = 21
Average packet latency = 39.2982
Maximum packet latency = 107
Minimum network latency = 22
Average network latency = 40.2975
Maximum network latency = 108
Slowest packet = 27410
Minimum flit latency = 22
Average flit latency = 40.3019
Maximum flit latency = 108
Slowest flit = 27410
Minimum fragmentation = 0
Average fragmentation = 0
Maximum fragmentation = 0
Minimum injected packet rate = 0.04805 (at node 10)
Average injected packet rate = 0.0503
Maximum injected packet rate = 0.0535 (at node 14)
Minimum accepted packet rate = 0.0481 (at node 15)
Average accepted packet rate = 0.0502688
Maximum accepted packet rate = 0.0534 (at node 3)
Minimum injected flit rate = 0.04805 (at node 10)
Average injected flit rate = 0.0503
Maximum injected flit rate = 0.0535 (at node 14)
Minimum accepted flit rate = 0.0481 (at node 15)
Average accepted flit rate = 0.0502688
Maximum accepted flit rate = 0.0534 (at node 3)
Total number of injected packets = 16096
Total number of injected flits = 16096
Average injected packet length = 1
Total number of accepted packets = 16086
Total number of accepted flits = 16086
Average accepted packet length = 1
Total in-flight flits = 31 (31 measured)
===== Time: 60000 =====
Class 0:
Minimum packet latency = 21
Average packet latency = 39.2835
Maximum packet latency = 110
Minimum network latency = 22
Average network latency = 40.2828
Maximum network latency = 111
Slowest packet = 42728
Minimum flit latency = 22
Average flit latency = 40.2858
Maximum flit latency = 111
Slowest flit = 42728
Minimum fragmentation = 0
Average fragmentation = 0
Maximum fragmentation = 0
Minimum injected packet rate = 0.0481333 (at node 10)
Average injected packet rate = 0.0501896
Maximum injected packet rate = 0.0529 (at node 14)
Minimum accepted packet rate = 0.0481667 (at node 15)
Average accepted packet rate = 0.0501521
Maximum accepted packet rate = 0.0528667 (at node 3)
Minimum injected flit rate = 0.0481333 (at node 10)
Average injected flit rate = 0.0501896
Maximum injected flit rate = 0.0529 (at node 14)
Minimum accepted flit rate = 0.0481667 (at node 15)
Average accepted flit rate = 0.0501521
Maximum accepted flit rate = 0.0528667 (at node 3)
Total number of injected packets = 24091
Total number of injected flits = 24091
Average injected packet length = 1
Total number of accepted packets = 24073
Total number of accepted flits = 24073
Average accepted packet length = 1
Total in-flight flits = 39 (39 measured)
Draining remaining packets ...
Class 0:
Remaining flits: 47974 47982 47985 47996 47997 48001 48003 48005 48010 48012 [...] (31 flits)
Measured flits: 47974 47982 47985 47996 47997 48001 48003 48005 48010 48012 [...] (31 flits)
Class 0:
Remaining flits: 47982 47985 47996 48003 48012 48013 48014 48016 48017 48022 [...] (19 flits)
Measured flits: 47982 47985 47996 48003 48012 48013 48014 48016 48017 48022 [...] (19 flits)
Class 0:
Remaining flits: 47996 48003 48013 48016 48017 48023 48025 48028 48029 48033 [...] (11 flits)
Measured flits: 47996 48003 48013 48016 48017 48023 48025 48028 48029 48033 [...] (11 flits)
Class 0:
Remaining flits: 48003 48013 48017 48028 48029 48033 (6 flits)
Measured flits: 48003 48013 48017 48028 48029 48033 (6 flits)
Class 0:
Remaining flits: 48017 48028 48033 (3 flits)
Measured flits: 48017 48028 48033 (3 flits)
Class 0:
Remaining flits: 48028 48033 (2 flits)
Measured flits: 48028 48033 (2 flits)
Class 0:
Remaining flits: 48033 (1 flits)
Measured flits: 48033 (1 flits)
Class 0:
Remaining flits: (0 flits)
Measured flits: (0 flits)
Class 0:
Remaining flits: (0 flits)
Measured flits: (0 flits)
Class 0:
Remaining flits: (0 flits)
Measured flits: (0 flits)
Class 0:
Remaining flits: (0 flits)
Measured flits: (0 flits)
Class 0:
Remaining flits: (0 flits)
Measured flits: (0 flits)
Class 0:
Remaining flits: (0 flits)
Measured flits: (0 flits)
Class 0:
Remaining flits: (0 flits)
Measured flits: (0 flits)
Class 0:
Remaining flits: (0 flits)
Measured flits: (0 flits)
Class 0:
Remaining flits: (0 flits)
Measured flits: (0 flits)
Class 0:
Remaining flits: (0 flits)
Measured flits: (0 flits)
Class 0:
Remaining flits: (0 flits)
Measured flits: (0 flits)
Class 0:
Remaining flits: (0 flits)
Measured flits: (0 flits)
Class 0:
Remaining flits: (0 flits)
Measured flits: (0 flits)
Class 0:
Remaining flits: (0 flits)
Measured flits: (0 flits)
Class 0:
Remaining flits: (0 flits)
Measured flits: (0 flits)
Class 0:
Remaining flits: (0 flits)
Measured flits: (0 flits)
Class 0:
Remaining flits: (0 flits)
Measured flits: (0 flits)
Class 0:
Remaining flits: (0 flits)
Measured flits: (0 flits)
Class 0:
Remaining flits: (0 flits)
Measured flits: (0 flits)
Class 0:
Remaining flits: (0 flits)
Measured flits: (0 flits)
Class 0:
Remaining flits: (0 flits)
Measured flits: (0 flits)
Class 0:
Remaining flits: (0 flits)
Measured flits: (0 flits)
Class 0:
Remaining flits: (0 flits)
Measured flits: (0 flits)
Class 0:
Remaining flits: (0 flits)
Measured flits: (0 flits)
Class 0:
Remaining flits: (0 flits)
Measured flits: (0 flits)
Class 0:
Remaining flits: (0 flits)
Measured flits: (0 flits)
Class 0:
Remaining flits: (0 flits)
Measured flits: (0 flits)
Class 0:
Remaining flits: (0 flits)
Measured flits: (0 flits)
Class 0:
Remaining flits: (0 flits)
Measured flits: (0 flits)
Class 0:
Remaining flits: (0 flits)
Measured flits: (0 flits)
Class 0:
Remaining flits: (0 flits)
Measured flits: (0 flits)
Class 0:
Remaining flits: (0 flits)
Measured flits: (0 flits)
Class 0:
Remaining flits: (0 flits)
Measured flits: (0 flits)
Class 0:
Remaining flits: (0 flits)
Measured flits: (0 flits)
Class 0:
Remaining flits: (0 flits)
Measured flits: (0 flits)
Class 0:
Remaining flits: (0 flits)
Measured flits: (0 flits)
Class 0:
Remaining flits: (0 flits)
Measured flits: (0 flits)
Class 0:
Remaining flits: (0 flits)
Measured flits: (0 flits)
Class 0:
Remaining flits: (0 flits)
Measured flits: (0 flits)
Class 0:
Remaining flits: (0 flits)
Measured flits: (0 flits)
Class 0:
Remaining flits: (0 flits)
Measured flits: (0 flits)
Class 0:
Remaining flits: (0 flits)
Measured flits: (0 flits)
Class 0:
Remaining flits: (0 flits)
Measured flits: (0 flits)
Class 0:
Remaining flits: (0 flits)
Measured flits: (0 flits)
Class 0:
Remaining flits: (0 flits)
Measured flits: (0 flits)
Class 0:
Remaining flits: (0 flits)
Measured flits: (0 flits)
Class 0:
Remaining flits: (0 flits)
Measured flits: (0 flits)
Class 0:
Remaining flits: (0 flits)
Measured flits: (0 flits)
Class 0:
Remaining flits: (0 flits)
Measured flits: (0 flits)
Class 0:
Remaining flits: (0 flits)
Measured flits: (0 flits)
Class 0:
Remaining flits: (0 flits)
Measured flits: (0 flits)
Class 0:
Remaining flits: (0 flits)
Measured flits: (0 flits)
Class 0:
Remaining flits: (0 flits)
Measured flits: (0 flits)
Class 0:
Remaining flits: (0 flits)
Measured flits: (0 flits)
Class 0:
Remaining flits: (0 flits)
Measured flits: (0 flits)
Class 0:
Remaining flits: (0 flits)
Measured flits: (0 flits)
Class 0:
Remaining flits: (0 flits)
Measured flits: (0 flits)
Class 0:
Remaining flits: (0 flits)
Measured flits: (0 flits)
Class 0:
Remaining flits: (0 flits)
Measured flits: (0 flits)
Class 0:
Remaining flits: (0 flits)
Measured flits: (0 flits)
Class 0:
Remaining flits: (0 flits)
Measured flits: (0 flits)
Class 0:
Remaining flits: (0 flits)
Measured flits: (0 flits)
Class 0:
Remaining flits: (0 flits)
Measured flits: (0 flits)
Class 0:
Remaining flits: (0 flits)
Measured flits: (0 flits)
Class 0:
Remaining flits: (0 flits)
Measured flits: (0 flits)
Class 0:
Remaining flits: (0 flits)
Measured flits: (0 flits)
Class 0:
Remaining flits: (0 flits)
Measured flits: (0 flits)
Class 0:
Remaining flits: (0 flits)
Measured flits: (0 flits)
Class 0:
Remaining flits: (0 flits)
Measured flits: (0 flits)
Class 0:
Remaining flits: (0 flits)
Measured flits: (0 flits)
Class 0:
Remaining flits: (0 flits)
Measured flits: (0 flits)
Class 0:
Remaining flits: (0 flits)
Measured flits: (0 flits)
Class 0:
Remaining flits: (0 flits)
Measured flits: (0 flits)
Class 0:
Remaining flits: (0 flits)
Measured flits: (0 flits)
Class 0:
Remaining flits: (0 flits)
Measured flits: (0 flits)
Class 0:
Remaining flits: (0 flits)
Measured flits: (0 flits)
Class 0:
Remaining flits: (0 flits)
Measured flits: (0 flits)
Class 0:
Remaining flits: (0 flits)
Measured flits: (0 flits)
Class 0:
Remaining flits: (0 flits)
Measured flits: (0 flits)
Class 0:
Remaining flits: (0 flits)
Measured flits: (0 flits)
Class 0:
Remaining flits: (0 flits)
Measured flits: (0 flits)
Class 0:
Remaining flits: (0 flits)
Measured flits: (0 flits)
Class 0:
Remaining flits: (0 flits)
Measured flits: (0 flits)
Class 0:
Remaining flits: (0 flits)
Measured flits: (0 flits)
Class 0:
Remaining flits: (0 flits)
Measured flits: (0 flits)
Class 0:
Remaining flits: (0 flits)
Measured flits: (0 flits)
Class 0:
Remaining flits: (0 flits)
Measured flits: (0 flits)
Class 0:
Remaining flits: (0 flits)
Measured flits: (0 flits)
Class 0:
Remaining flits: (0 flits)
Measured flits: (0 flits)
Class 0:
Remaining flits: (0 flits)
Measured flits: (0 flits)
Class 0:
Remaining flits: (0 flits)
Measured flits: (0 flits)
Class 0:
Remaining flits: (0 flits)
Measured flits: (0 flits)
Class 0:
Remaining flits: (0 flits)
Measured flits: (0 flits)
Class 0:
Remaining flits: (0 flits)
Measured flits: (0 flits)
Time taken is 61000 cycles
====== Traffic class 0 ======

Total number of flits generated = 48037, changed lanes = 0
Overall minimum packet latency = 21 (1 samples)
Overall average packet latency = 39.2967 (1 samples)
Overall maximum packet latency = 110 (1 samples)
Overall minimum network latency = 22 (1 samples)
Overall average network latency = 40.296 (1 samples)
Overall maximum network latency = 111 (1 samples)
Overall minimum flit latency = 22 (1 samples)
Overall average flit latency = 40.299 (1 samples)
Overall maximum flit latency = 111 (1 samples)
Overall minimum fragmentation = 0 (1 samples)
Overall average fragmentation = 0 (1 samples)
Overall maximum fragmentation = 0 (1 samples)
Overall minimum injected packet rate = 0.0481333 (1 samples)
Overall average injected packet rate = 0.0501896 (1 samples)
Overall maximum injected packet rate = 0.0529 (1 samples)
Overall minimum accepted packet rate = 0.0481667 (1 samples)
Overall average accepted packet rate = 0.0501521 (1 samples)
Overall maximum accepted packet rate = 0.0528667 (1 samples)
Overall minimum injected flit rate = 0.0481333 (1 samples)
Overall average injected flit rate = 0.0501896 (1 samples)
Overall maximum injected flit rate = 0.0529 (1 samples)
Overall minimum accepted flit rate = 0.0481667 (1 samples)
Overall average accepted flit rate = 0.0501521 (1 samples)
Overall maximum accepted flit rate = 0.0528667 (1 samples)
Overall average injected packet size = 1 (1 samples)
Overall average accepted packet size = 1 (1 samples)
Overall average hops = 4.02071 (1 samples)
Overall throughput of the network (flits/cycle) = 1.60123
Overall throughput of the network (packets/cycle) = 1.60123
Total run time 45.817
