g++ -Wall -I. -Iarbiters -Iallocators -Irouters -Inetworks -Ipower  -O3 -g -MMD -c booksim_config.cpp -o booksim_config.o
g++  outputset.o misc_utils.o routefunc.o synthetictrafficmanager.o workloadtrafficmanager.o buffer_state.o module.o flitchannel.o buffer.o main.o rng_double_wrapper.o stats.o steadystatetrafficmanager.o traffic.o batchtrafficmanager.o vc.o credit.o workload.o rng_wrapper.o injection.o config_utils.o flit.o trafficmanager.o random_utils.o booksim_config.o power/buffer_monitor.o power/switch_monitor.o power/power_module.o routers/socket_lib.o routers/router.o routers/iq_router.o arbiters/prio_arb.o arbiters/matrix_arb.o arbiters/tree_arb.o arbiters/roundrobin_arb.o arbiters/arbiter.o allocators/wavefront.o allocators/islip.o allocators/selalloc.o allocators/separable_output_first.o allocators/separable.o allocators/allocator.o allocators/pim.o allocators/separable_input_first.o allocators/loa.o allocators/maxsize.o networks/fattree.o networks/cmesh.o networks/flatfly_onchip.o networks/qtree.o networks/tree4.o networks/network.o networks/anynet.o networks/fly.o networks/dragonfly.o networks/kncube.o lex.yy.o y.tab.o netrace/netrace.o -o booksim
Master: Running timer....
Master: Running SRC....
BEGIN Configuration File: ./examples/bitrev
// Topology

topology = mesh;
k = 4;
n = 2;

// Routing
routing_function = dor;

// Flow control
num_vcs     = 1;
vc_buf_size = 4;
wait_for_tail_credit = 0;

// Router architecture
vc_allocator = islip;
sw_allocator = islip;
alloc_iters  = 1;

credit_delay   = 1;
routing_delay  = 1;
vc_alloc_delay = 1;
sw_alloc_delay = 1;

input_speedup     = 1;
output_speedup    = 1;
internal_speedup  = 1.0;

vc_busy_when_full = 0;

// Traffic
traffic = neighbor;
packet_size = 4;

// Simulation
sim_type = throughput;

injection_rate = 0.05;

END Configuration File: ./examples/bitrev
===== Time: 1000 =====
Class 0:
Minimum packet latency = 26
Average packet latency = 56.9061
Maximum packet latency = 150
Minimum network latency = 27
Average network latency = 50.0816
Maximum network latency = 125
Slowest packet = 6
Minimum flit latency = 23
Average flit latency = 43.1578
Maximum flit latency = 122
Slowest flit = 1759
Minimum fragmentation = 0
Average fragmentation = 6.13061
Maximum fragmentation = 85
Minimum injected packet rate = 0.007 (at node 4)
Average injected packet rate = 0.0341875
Maximum injected packet rate = 0.057 (at node 11)
Minimum accepted packet rate = 0.003 (at node 1)
Average accepted packet rate = 0.030625
Maximum accepted packet rate = 0.052 (at node 12)
Minimum injected flit rate = 0.027 (at node 4)
Average injected flit rate = 0.136125
Maximum injected flit rate = 0.226 (at node 11)
Minimum accepted flit rate = 0.014 (at node 1)
Average accepted flit rate = 0.123938
Maximum accepted flit rate = 0.209 (at node 12)
Total number of injected packets = 547
Total number of injected flits = 2178
Average injected packet length = 3.98172
Total number of accepted packets = 490
Total number of accepted flits = 1983
Average accepted packet length = 4.04694
Total in-flight flits = 209 (0 measured)
===== Time: 2000 =====
Class 0:
Minimum packet latency = 26
Average packet latency = 58.7736
Maximum packet latency = 150
Minimum network latency = 27
Average network latency = 50.747
Maximum network latency = 125
Slowest packet = 6
Minimum flit latency = 23
Average flit latency = 44.0089
Maximum flit latency = 122
Slowest flit = 1759
Minimum fragmentation = 0
Average fragmentation = 6.0253
Maximum fragmentation = 85
Minimum injected packet rate = 0.0035 (at node 4)
Average injected packet rate = 0.0253438
Maximum injected packet rate = 0.0555 (at node 11)
Minimum accepted packet rate = 0.0015 (at node 1)
Average accepted packet rate = 0.0234688
Maximum accepted packet rate = 0.053 (at node 12)
Minimum injected flit rate = 0.0135 (at node 4)
Average injected flit rate = 0.100875
Maximum injected flit rate = 0.2215 (at node 11)
Minimum accepted flit rate = 0.007 (at node 1)
Average accepted flit rate = 0.09475
Maximum accepted flit rate = 0.213 (at node 12)
Total number of injected packets = 811
Total number of injected flits = 3228
Average injected packet length = 3.98027
Total number of accepted packets = 751
Total number of accepted flits = 3032
Average accepted packet length = 4.03728
Total in-flight flits = 212 (0 measured)
===== Time: 3000 =====
Class 0:
Minimum packet latency = 39
Average packet latency = 65.7632
Maximum packet latency = 153
Minimum network latency = 40
Average network latency = 52.4895
Maximum network latency = 154
Slowest packet = 884
Minimum flit latency = 33
Average flit latency = 45.9328
Maximum flit latency = 151
Slowest flit = 3539
Minimum fragmentation = 1
Average fragmentation = 5.90526
Maximum fragmentation = 116
Minimum injected packet rate = 0 (at node 0)
Average injected packet rate = 0.012
Maximum injected packet rate = 0.049 (at node 9)
Minimum accepted packet rate = 0 (at node 0)
Average accepted packet rate = 0.011875
Maximum accepted packet rate = 0.048 (at node 14)
Minimum injected flit rate = 0 (at node 0)
Average injected flit rate = 0.0479375
Maximum injected flit rate = 0.195 (at node 9)
Minimum accepted flit rate = 0 (at node 0)
Average accepted flit rate = 0.0474375
Maximum accepted flit rate = 0.191 (at node 14)
Total number of injected packets = 192
Total number of injected flits = 767
Average injected packet length = 3.99479
Total number of accepted packets = 190
Total number of accepted flits = 759
Average accepted packet length = 3.99474
Total in-flight flits = 225 (0 measured)
===== Time: 4000 =====
Class 0:
Minimum packet latency = 39
Average packet latency = 75.1324
Maximum packet latency = 161
Minimum network latency = 40
Average network latency = 51.951
Maximum network latency = 110
Slowest packet = 1005
Minimum flit latency = 32
Average flit latency = 45.8324
Maximum flit latency = 107
Slowest flit = 4155
Minimum fragmentation = 3
Average fragmentation = 5.78922
Maximum fragmentation = 73
Minimum injected packet rate = 0 (at node 0)
Average injected packet rate = 0.0135
Maximum injected packet rate = 0.06 (at node 10)
Minimum accepted packet rate = 0 (at node 0)
Average accepted packet rate = 0.013625
Maximum accepted packet rate = 0.06 (at node 15)
Minimum injected flit rate = 0 (at node 0)
Average injected flit rate = 0.0539375
Maximum injected flit rate = 0.239 (at node 10)
Minimum accepted flit rate = 0 (at node 0)
Average accepted flit rate = 0.0544375
Maximum accepted flit rate = 0.239 (at node 15)
Total number of injected packets = 216
Total number of injected flits = 863
Average injected packet length = 3.99537
Total number of accepted packets = 218
Total number of accepted flits = 871
Average accepted packet length = 3.99541
Total in-flight flits = 214 (41 measured)
===== Time: 5000 =====
Class 0:
Minimum packet latency = 38
Average packet latency = 86.3499
Maximum packet latency = 211
Minimum network latency = 39
Average network latency = 51.5757
Maximum network latency = 110
Slowest packet = 1005
Minimum flit latency = 32
Average flit latency = 45.4241
Maximum flit latency = 107
Slowest flit = 4155
Minimum fragmentation = 3
Average fragmentation = 5.64764
Maximum fragmentation = 73
Minimum injected packet rate = 0 (at node 0)
Average injected packet rate = 0.0129375
Maximum injected packet rate = 0.059 (at node 8)
Minimum accepted packet rate = 0 (at node 0)
Average accepted packet rate = 0.0130312
Maximum accepted packet rate = 0.059 (at node 13)
Minimum injected flit rate = 0 (at node 0)
Average injected flit rate = 0.051875
Maximum injected flit rate = 0.237 (at node 8)
Minimum accepted flit rate = 0 (at node 0)
Average accepted flit rate = 0.0520938
Maximum accepted flit rate = 0.235 (at node 13)
Total number of injected packets = 414
Total number of injected flits = 1660
Average injected packet length = 4.00966
Total number of accepted packets = 417
Total number of accepted flits = 1667
Average accepted packet length = 3.9976
Total in-flight flits = 214 (41 measured)
===== Time: 6000 =====
Class 0:
Minimum packet latency = 38
Average packet latency = 77.183
Maximum packet latency = 211
Minimum network latency = 39
Average network latency = 50.1341
Maximum network latency = 110
Slowest packet = 1005
Minimum flit latency = 32
Average flit latency = 44.149
Maximum flit latency = 107
Slowest flit = 4155
Minimum fragmentation = 3
Average fragmentation = 5.50725
Maximum fragmentation = 73
Minimum injected packet rate = 0 (at node 0)
Average injected packet rate = 0.0117083
Maximum injected packet rate = 0.0536667 (at node 8)
Minimum accepted packet rate = 0 (at node 0)
Average accepted packet rate = 0.0117917
Maximum accepted packet rate = 0.0546667 (at node 13)
Minimum injected flit rate = 0 (at node 0)
Average injected flit rate = 0.0468958
Maximum injected flit rate = 0.215667 (at node 8)
Minimum accepted flit rate = 0 (at node 0)
Average accepted flit rate = 0.047125
Maximum accepted flit rate = 0.217667 (at node 13)
Total number of injected packets = 562
Total number of injected flits = 2251
Average injected packet length = 4.00534
Total number of accepted packets = 566
Total number of accepted flits = 2262
Average accepted packet length = 3.99647
Total in-flight flits = 207 (34 measured)
===== Time: 7000 =====
Class 0:
Minimum packet latency = 38
Average packet latency = 72.848
Maximum packet latency = 211
Minimum network latency = 39
Average network latency = 49.538
Maximum network latency = 158
Slowest packet = 1005
Minimum flit latency = 32
Average flit latency = 43.35
Maximum flit latency = 155
Slowest flit = 6603
Minimum fragmentation = 3
Average fragmentation = 5.76901
Maximum fragmentation = 119
Minimum injected packet rate = 0 (at node 0)
Average injected packet rate = 0.0109062
Maximum injected packet rate = 0.05375 (at node 8)
Minimum accepted packet rate = 0 (at node 0)
Average accepted packet rate = 0.0109062
Maximum accepted packet rate = 0.05375 (at node 13)
Minimum injected flit rate = 0 (at node 0)
Average injected flit rate = 0.0436719
Maximum injected flit rate = 0.2155 (at node 8)
Minimum accepted flit rate = 0 (at node 0)
Average accepted flit rate = 0.0436563
Maximum accepted flit rate = 0.21425 (at node 13)
Total number of injected packets = 698
Total number of injected flits = 2795
Average injected packet length = 4.0043
Total number of accepted packets = 698
Total number of accepted flits = 2794
Average accepted packet length = 4.00287
Total in-flight flits = 223 (50 measured)
===== Time: 8000 =====
Class 0:
Minimum packet latency = 38
Average packet latency = 71.9518
Maximum packet latency = 211
Minimum network latency = 39
Average network latency = 48.7908
Maximum network latency = 158
Slowest packet = 1005
Minimum flit latency = 32
Average flit latency = 42.6749
Maximum flit latency = 155
Slowest flit = 6603
Minimum fragmentation = 3
Average fragmentation = 5.59459
Maximum fragmentation = 119
Minimum injected packet rate = 0 (at node 0)
Average injected packet rate = 0.0108125
Maximum injected packet rate = 0.0564 (at node 8)
Minimum accepted packet rate = 0 (at node 0)
Average accepted packet rate = 0.0108125
Maximum accepted packet rate = 0.0564 (at node 13)
Minimum injected flit rate = 0 (at node 0)
Average injected flit rate = 0.0432625
Maximum injected flit rate = 0.2262 (at node 8)
Minimum accepted flit rate = 0 (at node 0)
Average accepted flit rate = 0.0432625
Maximum accepted flit rate = 0.2254 (at node 13)
Total number of injected packets = 865
Total number of injected flits = 3461
Average injected packet length = 4.00116
Total number of accepted packets = 865
Total number of accepted flits = 3461
Average accepted packet length = 4.00116
Total in-flight flits = 224 (51 measured)
===== Time: 9000 =====
Class 0:
Minimum packet latency = 38
Average packet latency = 71.4956
Maximum packet latency = 211
Minimum network latency = 39
Average network latency = 48.1606
Maximum network latency = 158
Slowest packet = 1005
Minimum flit latency = 32
Average flit latency = 42.169
Maximum flit latency = 155
Slowest flit = 6603
Minimum fragmentation = 3
Average fragmentation = 5.36337
Maximum fragmentation = 119
Minimum injected packet rate = 0 (at node 0)
Average injected packet rate = 0.0107812
Maximum injected packet rate = 0.0566667 (at node 8)
Minimum accepted packet rate = 0 (at node 0)
Average accepted packet rate = 0.0107812
Maximum accepted packet rate = 0.0566667 (at node 13)
Minimum injected flit rate = 0 (at node 0)
Average injected flit rate = 0.0431667
Maximum injected flit rate = 0.227167 (at node 8)
Minimum accepted flit rate = 0 (at node 0)
Average accepted flit rate = 0.0431458
Maximum accepted flit rate = 0.226333 (at node 13)
Total number of injected packets = 1035
Total number of injected flits = 4144
Average injected packet length = 4.00386
Total number of accepted packets = 1035
Total number of accepted flits = 4142
Average accepted packet length = 4.00193
Total in-flight flits = 227 (54 measured)
===== Time: 10000 =====
Class 0:
Minimum packet latency = 38
Average packet latency = 69.3151
Maximum packet latency = 211
Minimum network latency = 39
Average network latency = 47.7899
Maximum network latency = 158
Slowest packet = 1005
Minimum flit latency = 32
Average flit latency = 41.8265
Maximum flit latency = 155
Slowest flit = 6603
Minimum fragmentation = 3
Average fragmentation = 5.32451
Maximum fragmentation = 119
Minimum injected packet rate = 0 (at node 0)
Average injected packet rate = 0.0105536
Maximum injected packet rate = 0.0551429 (at node 8)
Minimum accepted packet rate = 0 (at node 0)
Average accepted packet rate = 0.0105804
Maximum accepted packet rate = 0.0552857 (at node 13)
Minimum injected flit rate = 0 (at node 0)
Average injected flit rate = 0.0422321
Maximum injected flit rate = 0.221 (at node 8)
Minimum accepted flit rate = 0 (at node 0)
Average accepted flit rate = 0.0423125
Maximum accepted flit rate = 0.220714 (at node 13)
Total number of injected packets = 1182
Total number of injected flits = 4730
Average injected packet length = 4.00169
Total number of accepted packets = 1185
Total number of accepted flits = 4739
Average accepted packet length = 3.99916
Total in-flight flits = 214 (41 measured)
Draining remaining packets ...
Class 0:
Remaining flits: 246 247 374 375 420 421 422 423 432 433 [...] (210 flits)
Measured flits: 5758 5759 5772 5773 5774 5775 5776 5777 5778 5779 [...] (37 flits)
Class 0:
Remaining flits: 246 247 374 375 420 421 422 423 432 433 [...] (206 flits)
Measured flits: 5758 5759 5772 5773 5774 5775 5776 5777 5778 5779 [...] (33 flits)
Class 0:
Remaining flits: 246 247 374 375 420 421 422 423 432 433 [...] (198 flits)
Measured flits: 5758 5759 5772 5773 5774 5775 5776 5777 5778 5779 [...] (25 flits)
Class 0:
Remaining flits: 246 247 374 375 420 421 422 423 432 433 [...] (194 flits)
Measured flits: 5758 5759 5772 5773 5774 5775 5776 5777 5778 5779 [...] (21 flits)
Class 0:
Remaining flits: 246 247 374 375 420 421 422 423 432 433 [...] (189 flits)
Measured flits: 5758 5759 5772 5773 5774 5775 5776 5777 5778 5779 [...] (16 flits)
Class 0:
Remaining flits: 246 247 374 375 420 421 422 423 432 433 [...] (187 flits)
Measured flits: 5758 5759 5772 5773 5774 5775 5776 5777 5778 5779 [...] (14 flits)
Class 0:
Remaining flits: 246 247 374 375 420 421 422 423 432 433 [...] (187 flits)
Measured flits: 5758 5759 5772 5773 5774 5775 5776 5777 5778 5779 [...] (14 flits)
Class 0:
Remaining flits: 246 247 374 375 420 421 422 423 432 433 [...] (187 flits)
Measured flits: 5758 5759 5772 5773 5774 5775 5776 5777 5778 5779 [...] (14 flits)
Class 0:
Remaining flits: 246 247 374 375 420 421 422 423 432 433 [...] (187 flits)
Measured flits: 5758 5759 5772 5773 5774 5775 5776 5777 5778 5779 [...] (14 flits)
Class 0:
Remaining flits: 246 247 374 375 420 421 422 423 432 433 [...] (187 flits)
Measured flits: 5758 5759 5772 5773 5774 5775 5776 5777 5778 5779 [...] (14 flits)
Class 0:
Remaining flits: 246 247 374 375 420 421 422 423 432 433 [...] (187 flits)
Measured flits: 5758 5759 5772 5773 5774 5775 5776 5777 5778 5779 [...] (14 flits)
Class 0:
Remaining flits: 246 247 374 375 420 421 422 423 432 433 [...] (187 flits)
Measured flits: 5758 5759 5772 5773 5774 5775 5776 5777 5778 5779 [...] (14 flits)
Class 0:
Remaining flits: 246 247 374 375 420 421 422 423 432 433 [...] (187 flits)
Measured flits: 5758 5759 5772 5773 5774 5775 5776 5777 5778 5779 [...] (14 flits)
Class 0:
Remaining flits: 246 247 374 375 420 421 422 423 432 433 [...] (187 flits)
Measured flits: 5758 5759 5772 5773 5774 5775 5776 5777 5778 5779 [...] (14 flits)
Class 0:
Remaining flits: 246 247 374 375 420 421 422 423 432 433 [...] (187 flits)
Measured flits: 5758 5759 5772 5773 5774 5775 5776 5777 5778 5779 [...] (14 flits)
Class 0:
Remaining flits: 246 247 374 375 420 421 422 423 432 433 [...] (187 flits)
Measured flits: 5758 5759 5772 5773 5774 5775 5776 5777 5778 5779 [...] (14 flits)
Class 0:
Remaining flits: 246 247 374 375 420 421 422 423 432 433 [...] (187 flits)
Measured flits: 5758 5759 5772 5773 5774 5775 5776 5777 5778 5779 [...] (14 flits)
Class 0:
Remaining flits: 246 247 374 375 420 421 422 423 432 433 [...] (187 flits)
Measured flits: 5758 5759 5772 5773 5774 5775 5776 5777 5778 5779 [...] (14 flits)
Class 0:
Remaining flits: 246 247 374 375 420 421 422 423 432 433 [...] (187 flits)
Measured flits: 5758 5759 5772 5773 5774 5775 5776 5777 5778 5779 [...] (14 flits)
Class 0:
Remaining flits: 246 247 374 375 420 421 422 423 432 433 [...] (187 flits)
Measured flits: 5758 5759 5772 5773 5774 5775 5776 5777 5778 5779 [...] (14 flits)
Class 0:
Remaining flits: 246 247 374 375 420 421 422 423 432 433 [...] (187 flits)
Measured flits: 5758 5759 5772 5773 5774 5775 5776 5777 5778 5779 [...] (14 flits)
Class 0:
Remaining flits: 246 247 374 375 420 421 422 423 432 433 [...] (187 flits)
Measured flits: 5758 5759 5772 5773 5774 5775 5776 5777 5778 5779 [...] (14 flits)
Class 0:
Remaining flits: 246 247 374 375 420 421 422 423 432 433 [...] (187 flits)
Measured flits: 5758 5759 5772 5773 5774 5775 5776 5777 5778 5779 [...] (14 flits)
Class 0:
Remaining flits: 246 247 374 375 420 421 422 423 432 433 [...] (187 flits)
Measured flits: 5758 5759 5772 5773 5774 5775 5776 5777 5778 5779 [...] (14 flits)
Class 0:
Remaining flits: 246 247 374 375 420 421 422 423 432 433 [...] (187 flits)
Measured flits: 5758 5759 5772 5773 5774 5775 5776 5777 5778 5779 [...] (14 flits)
Class 0:
Remaining flits: 246 247 374 375 420 421 422 423 432 433 [...] (187 flits)
Measured flits: 5758 5759 5772 5773 5774 5775 5776 5777 5778 5779 [...] (14 flits)
Class 0:
Remaining flits: 246 247 374 375 420 421 422 423 432 433 [...] (187 flits)
Measured flits: 5758 5759 5772 5773 5774 5775 5776 5777 5778 5779 [...] (14 flits)
Class 0:
Remaining flits: 246 247 374 375 420 421 422 423 432 433 [...] (187 flits)
Measured flits: 5758 5759 5772 5773 5774 5775 5776 5777 5778 5779 [...] (14 flits)
Class 0:
Remaining flits: 246 247 374 375 420 421 422 423 432 433 [...] (187 flits)
Measured flits: 5758 5759 5772 5773 5774 5775 5776 5777 5778 5779 [...] (14 flits)
Class 0:
Remaining flits: 246 247 374 375 420 421 422 423 432 433 [...] (187 flits)
Measured flits: 5758 5759 5772 5773 5774 5775 5776 5777 5778 5779 [...] (14 flits)
Class 0:
Remaining flits: 246 247 374 375 420 421 422 423 432 433 [...] (187 flits)
Measured flits: 5758 5759 5772 5773 5774 5775 5776 5777 5778 5779 [...] (14 flits)
Class 0:
Remaining flits: 246 247 374 375 420 421 422 423 432 433 [...] (187 flits)
Measured flits: 5758 5759 5772 5773 5774 5775 5776 5777 5778 5779 [...] (14 flits)
Class 0:
Remaining flits: 246 247 374 375 420 421 422 423 432 433 [...] (187 flits)
Measured flits: 5758 5759 5772 5773 5774 5775 5776 5777 5778 5779 [...] (14 flits)
Class 0:
Remaining flits: 246 247 374 375 420 421 422 423 432 433 [...] (187 flits)
Measured flits: 5758 5759 5772 5773 5774 5775 5776 5777 5778 5779 [...] (14 flits)
Class 0:
Remaining flits: 246 247 374 375 420 421 422 423 432 433 [...] (187 flits)
Measured flits: 5758 5759 5772 5773 5774 5775 5776 5777 5778 5779 [...] (14 flits)
Class 0:
Remaining flits: 246 247 374 375 420 421 422 423 432 433 [...] (187 flits)
Measured flits: 5758 5759 5772 5773 5774 5775 5776 5777 5778 5779 [...] (14 flits)
Class 0:
Remaining flits: 246 247 374 375 420 421 422 423 432 433 [...] (187 flits)
Measured flits: 5758 5759 5772 5773 5774 5775 5776 5777 5778 5779 [...] (14 flits)
Class 0:
Remaining flits: 246 247 374 375 420 421 422 423 432 433 [...] (187 flits)
Measured flits: 5758 5759 5772 5773 5774 5775 5776 5777 5778 5779 [...] (14 flits)
Class 0:
Remaining flits: 246 247 374 375 420 421 422 423 432 433 [...] (187 flits)
Measured flits: 5758 5759 5772 5773 5774 5775 5776 5777 5778 5779 [...] (14 flits)
Class 0:
Remaining flits: 246 247 374 375 420 421 422 423 432 433 [...] (187 flits)
Measured flits: 5758 5759 5772 5773 5774 5775 5776 5777 5778 5779 [...] (14 flits)
Class 0:
Remaining flits: 246 247 374 375 420 421 422 423 432 433 [...] (187 flits)
Measured flits: 5758 5759 5772 5773 5774 5775 5776 5777 5778 5779 [...] (14 flits)
Class 0:
Remaining flits: 246 247 374 375 420 421 422 423 432 433 [...] (187 flits)
Measured flits: 5758 5759 5772 5773 5774 5775 5776 5777 5778 5779 [...] (14 flits)
Class 0:
Remaining flits: 246 247 374 375 420 421 422 423 432 433 [...] (187 flits)
Measured flits: 5758 5759 5772 5773 5774 5775 5776 5777 5778 5779 [...] (14 flits)
Class 0:
Remaining flits: 246 247 374 375 420 421 422 423 432 433 [...] (187 flits)
Measured flits: 5758 5759 5772 5773 5774 5775 5776 5777 5778 5779 [...] (14 flits)
Class 0:
Remaining flits: 246 247 374 375 420 421 422 423 432 433 [...] (187 flits)
Measured flits: 5758 5759 5772 5773 5774 5775 5776 5777 5778 5779 [...] (14 flits)
Class 0:
Remaining flits: 246 247 374 375 420 421 422 423 432 433 [...] (187 flits)
Measured flits: 5758 5759 5772 5773 5774 5775 5776 5777 5778 5779 [...] (14 flits)
Class 0:
Remaining flits: 246 247 374 375 420 421 422 423 432 433 [...] (187 flits)
Measured flits: 5758 5759 5772 5773 5774 5775 5776 5777 5778 5779 [...] (14 flits)
Class 0:
Remaining flits: 246 247 374 375 420 421 422 423 432 433 [...] (187 flits)
Measured flits: 5758 5759 5772 5773 5774 5775 5776 5777 5778 5779 [...] (14 flits)
Class 0:
Remaining flits: 246 247 374 375 420 421 422 423 432 433 [...] (187 flits)
Measured flits: 5758 5759 5772 5773 5774 5775 5776 5777 5778 5779 [...] (14 flits)
Class 0:
Remaining flits: 246 247 374 375 420 421 422 423 432 433 [...] (187 flits)
Measured flits: 5758 5759 5772 5773 5774 5775 5776 5777 5778 5779 [...] (14 flits)
Class 0:
Remaining flits: 246 247 374 375 420 421 422 423 432 433 [...] (187 flits)
Measured flits: 5758 5759 5772 5773 5774 5775 5776 5777 5778 5779 [...] (14 flits)
Class 0:
Remaining flits: 246 247 374 375 420 421 422 423 432 433 [...] (187 flits)
Measured flits: 5758 5759 5772 5773 5774 5775 5776 5777 5778 5779 [...] (14 flits)
Class 0:
Remaining flits: 246 247 374 375 420 421 422 423 432 433 [...] (187 flits)
Measured flits: 5758 5759 5772 5773 5774 5775 5776 5777 5778 5779 [...] (14 flits)
Class 0:
Remaining flits: 246 247 374 375 420 421 422 423 432 433 [...] (187 flits)
Measured flits: 5758 5759 5772 5773 5774 5775 5776 5777 5778 5779 [...] (14 flits)
Class 0:
Remaining flits: 246 247 374 375 420 421 422 423 432 433 [...] (187 flits)
Measured flits: 5758 5759 5772 5773 5774 5775 5776 5777 5778 5779 [...] (14 flits)
Class 0:
Remaining flits: 246 247 374 375 420 421 422 423 432 433 [...] (187 flits)
Measured flits: 5758 5759 5772 5773 5774 5775 5776 5777 5778 5779 [...] (14 flits)
Class 0:
Remaining flits: 246 247 374 375 420 421 422 423 432 433 [...] (187 flits)
Measured flits: 5758 5759 5772 5773 5774 5775 5776 5777 5778 5779 [...] (14 flits)
Class 0:
Remaining flits: 246 247 374 375 420 421 422 423 432 433 [...] (187 flits)
Measured flits: 5758 5759 5772 5773 5774 5775 5776 5777 5778 5779 [...] (14 flits)
Class 0:
Remaining flits: 246 247 374 375 420 421 422 423 432 433 [...] (187 flits)
Measured flits: 5758 5759 5772 5773 5774 5775 5776 5777 5778 5779 [...] (14 flits)
Class 0:
Remaining flits: 246 247 374 375 420 421 422 423 432 433 [...] (187 flits)
Measured flits: 5758 5759 5772 5773 5774 5775 5776 5777 5778 5779 [...] (14 flits)
Class 0:
Remaining flits: 246 247 374 375 420 421 422 423 432 433 [...] (187 flits)
Measured flits: 5758 5759 5772 5773 5774 5775 5776 5777 5778 5779 [...] (14 flits)
Class 0:
Remaining flits: 246 247 374 375 420 421 422 423 432 433 [...] (187 flits)
Measured flits: 5758 5759 5772 5773 5774 5775 5776 5777 5778 5779 [...] (14 flits)
Class 0:
Remaining flits: 246 247 374 375 420 421 422 423 432 433 [...] (187 flits)
Measured flits: 5758 5759 5772 5773 5774 5775 5776 5777 5778 5779 [...] (14 flits)
Class 0:
Remaining flits: 246 247 374 375 420 421 422 423 432 433 [...] (187 flits)
Measured flits: 5758 5759 5772 5773 5774 5775 5776 5777 5778 5779 [...] (14 flits)
Class 0:
Remaining flits: 246 247 374 375 420 421 422 423 432 433 [...] (187 flits)
Measured flits: 5758 5759 5772 5773 5774 5775 5776 5777 5778 5779 [...] (14 flits)
Class 0:
Remaining flits: 246 247 374 375 420 421 422 423 432 433 [...] (187 flits)
Measured flits: 5758 5759 5772 5773 5774 5775 5776 5777 5778 5779 [...] (14 flits)
Class 0:
Remaining flits: 246 247 374 375 420 421 422 423 432 433 [...] (187 flits)
Measured flits: 5758 5759 5772 5773 5774 5775 5776 5777 5778 5779 [...] (14 flits)
Class 0:
Remaining flits: 246 247 374 375 420 421 422 423 432 433 [...] (187 flits)
Measured flits: 5758 5759 5772 5773 5774 5775 5776 5777 5778 5779 [...] (14 flits)
Class 0:
Remaining flits: 246 247 374 375 420 421 422 423 432 433 [...] (187 flits)
Measured flits: 5758 5759 5772 5773 5774 5775 5776 5777 5778 5779 [...] (14 flits)
Class 0:
Remaining flits: 246 247 374 375 420 421 422 423 432 433 [...] (187 flits)
Measured flits: 5758 5759 5772 5773 5774 5775 5776 5777 5778 5779 [...] (14 flits)
Class 0:
Remaining flits: 246 247 374 375 420 421 422 423 432 433 [...] (187 flits)
Measured flits: 5758 5759 5772 5773 5774 5775 5776 5777 5778 5779 [...] (14 flits)
Class 0:
Remaining flits: 246 247 374 375 420 421 422 423 432 433 [...] (187 flits)
Measured flits: 5758 5759 5772 5773 5774 5775 5776 5777 5778 5779 [...] (14 flits)
Class 0:
Remaining flits: 246 247 374 375 420 421 422 423 432 433 [...] (187 flits)
Measured flits: 5758 5759 5772 5773 5774 5775 5776 5777 5778 5779 [...] (14 flits)
Class 0:
Remaining flits: 246 247 374 375 420 421 422 423 432 433 [...] (187 flits)
Measured flits: 5758 5759 5772 5773 5774 5775 5776 5777 5778 5779 [...] (14 flits)
Class 0:
Remaining flits: 246 247 374 375 420 421 422 423 432 433 [...] (187 flits)
Measured flits: 5758 5759 5772 5773 5774 5775 5776 5777 5778 5779 [...] (14 flits)
Class 0:
Remaining flits: 246 247 374 375 420 421 422 423 432 433 [...] (187 flits)
Measured flits: 5758 5759 5772 5773 5774 5775 5776 5777 5778 5779 [...] (14 flits)
Class 0:
Remaining flits: 246 247 374 375 420 421 422 423 432 433 [...] (187 flits)
Measured flits: 5758 5759 5772 5773 5774 5775 5776 5777 5778 5779 [...] (14 flits)
Class 0:
Remaining flits: 246 247 374 375 420 421 422 423 432 433 [...] (187 flits)
Measured flits: 5758 5759 5772 5773 5774 5775 5776 5777 5778 5779 [...] (14 flits)
Class 0:
Remaining flits: 246 247 374 375 420 421 422 423 432 433 [...] (187 flits)
Measured flits: 5758 5759 5772 5773 5774 5775 5776 5777 5778 5779 [...] (14 flits)
Class 0:
Remaining flits: 246 247 374 375 420 421 422 423 432 433 [...] (187 flits)
Measured flits: 5758 5759 5772 5773 5774 5775 5776 5777 5778 5779 [...] (14 flits)
Class 0:
Remaining flits: 246 247 374 375 420 421 422 423 432 433 [...] (187 flits)
Measured flits: 5758 5759 5772 5773 5774 5775 5776 5777 5778 5779 [...] (14 flits)
Class 0:
Remaining flits: 246 247 374 375 420 421 422 423 432 433 [...] (187 flits)
Measured flits: 5758 5759 5772 5773 5774 5775 5776 5777 5778 5779 [...] (14 flits)
Class 0:
Remaining flits: 246 247 374 375 420 421 422 423 432 433 [...] (187 flits)
Measured flits: 5758 5759 5772 5773 5774 5775 5776 5777 5778 5779 [...] (14 flits)
Class 0:
Remaining flits: 246 247 374 375 420 421 422 423 432 433 [...] (187 flits)
Measured flits: 5758 5759 5772 5773 5774 5775 5776 5777 5778 5779 [...] (14 flits)
Class 0:
Remaining flits: 246 247 374 375 420 421 422 423 432 433 [...] (187 flits)
Measured flits: 5758 5759 5772 5773 5774 5775 5776 5777 5778 5779 [...] (14 flits)
Class 0:
Remaining flits: 246 247 374 375 420 421 422 423 432 433 [...] (187 flits)
Measured flits: 5758 5759 5772 5773 5774 5775 5776 5777 5778 5779 [...] (14 flits)
Class 0:
Remaining flits: 246 247 374 375 420 421 422 423 432 433 [...] (187 flits)
Measured flits: 5758 5759 5772 5773 5774 5775 5776 5777 5778 5779 [...] (14 flits)
Class 0:
Remaining flits: 246 247 374 375 420 421 422 423 432 433 [...] (187 flits)
Measured flits: 5758 5759 5772 5773 5774 5775 5776 5777 5778 5779 [...] (14 flits)
Class 0:
Remaining flits: 246 247 374 375 420 421 422 423 432 433 [...] (187 flits)
Measured flits: 5758 5759 5772 5773 5774 5775 5776 5777 5778 5779 [...] (14 flits)
Class 0:
Remaining flits: 246 247 374 375 420 421 422 423 432 433 [...] (187 flits)
Measured flits: 5758 5759 5772 5773 5774 5775 5776 5777 5778 5779 [...] (14 flits)
Class 0:
Remaining flits: 246 247 374 375 420 421 422 423 432 433 [...] (187 flits)
Measured flits: 5758 5759 5772 5773 5774 5775 5776 5777 5778 5779 [...] (14 flits)
Class 0:
Remaining flits: 246 247 374 375 420 421 422 423 432 433 [...] (187 flits)
Measured flits: 5758 5759 5772 5773 5774 5775 5776 5777 5778 5779 [...] (14 flits)
Class 0:
Remaining flits: 246 247 374 375 420 421 422 423 432 433 [...] (187 flits)
Measured flits: 5758 5759 5772 5773 5774 5775 5776 5777 5778 5779 [...] (14 flits)
Class 0:
Remaining flits: 246 247 374 375 420 421 422 423 432 433 [...] (187 flits)
Measured flits: 5758 5759 5772 5773 5774 5775 5776 5777 5778 5779 [...] (14 flits)
Class 0:
Remaining flits: 246 247 374 375 420 421 422 423 432 433 [...] (187 flits)
Measured flits: 5758 5759 5772 5773 5774 5775 5776 5777 5778 5779 [...] (14 flits)
Class 0:
Remaining flits: 246 247 374 375 420 421 422 423 432 433 [...] (187 flits)
Measured flits: 5758 5759 5772 5773 5774 5775 5776 5777 5778 5779 [...] (14 flits)
Class 0:
Remaining flits: 246 247 374 375 420 421 422 423 432 433 [...] (187 flits)
Measured flits: 5758 5759 5772 5773 5774 5775 5776 5777 5778 5779 [...] (14 flits)
Class 0:
Remaining flits: 246 247 374 375 420 421 422 423 432 433 [...] (187 flits)
Measured flits: 5758 5759 5772 5773 5774 5775 5776 5777 5778 5779 [...] (14 flits)
Class 0:
Remaining flits: 246 247 374 375 420 421 422 423 432 433 [...] (187 flits)
Measured flits: 5758 5759 5772 5773 5774 5775 5776 5777 5778 5779 [...] (14 flits)
Class 0:
Remaining flits: 246 247 374 375 420 421 422 423 432 433 [...] (187 flits)
Measured flits: 5758 5759 5772 5773 5774 5775 5776 5777 5778 5779 [...] (14 flits)
Class 0:
Remaining flits: 246 247 374 375 420 421 422 423 432 433 [...] (187 flits)
Measured flits: 5758 5759 5772 5773 5774 5775 5776 5777 5778 5779 [...] (14 flits)
Time taken is 11000 cycles
====== Traffic class 0 ======

Total number of flits generated = 8744, changed lanes = 0
Overall minimum packet latency = 38 (1 samples)
Overall average packet latency = 69.2411 (1 samples)
Overall maximum packet latency = 211 (1 samples)
Overall minimum network latency = 39 (1 samples)
Overall average network latency = 47.7674 (1 samples)
Overall maximum network latency = 158 (1 samples)
Overall minimum flit latency = 32 (1 samples)
Overall average flit latency = 41.8124 (1 samples)
Overall maximum flit latency = 155 (1 samples)
Overall minimum fragmentation = 3 (1 samples)
Overall average fragmentation = 5.31154 (1 samples)
Overall maximum fragmentation = 119 (1 samples)
Overall minimum injected packet rate = 0 (1 samples)
Overall average injected packet rate = 0.0105536 (1 samples)
Overall maximum injected packet rate = 0.0551429 (1 samples)
Overall minimum accepted packet rate = 0 (1 samples)
Overall average accepted packet rate = 0.0105804 (1 samples)
Overall maximum accepted packet rate = 0.0552857 (1 samples)
Overall minimum injected flit rate = 0 (1 samples)
Overall average injected flit rate = 0.0422321 (1 samples)
Overall maximum injected flit rate = 0.221 (1 samples)
Overall minimum accepted flit rate = 0 (1 samples)
Overall average accepted flit rate = 0.0423125 (1 samples)
Overall maximum accepted flit rate = 0.220714 (1 samples)
Overall average injected packet size = 4.00169 (1 samples)
Overall average accepted packet size = 3.99916 (1 samples)
Overall average hops = 3.16299 (1 samples)
Overall throughput of the network (flits/cycle) = 1.22243
Overall throughput of the network (packets/cycle) = 0.304714
Total run time 3845.48
