make: Nothing to be done for 'all'.
Master: Running timer....
Master: Running SRC....
BEGIN Configuration File: ./examples/bitrev
// Topology

topology = torus;
k = 4;
n = 2;

// Routing
routing_function = min_adapt;

// Flow control
num_vcs     = 4;
vc_buf_size = 4;
wait_for_tail_credit = 0;

// Router architecture
vc_allocator = islip;
sw_allocator = islip;
alloc_iters  = 1;

credit_delay   = 1;
routing_delay  = 1;
vc_alloc_delay = 1;
sw_alloc_delay = 1;

input_speedup     = 1;
output_speedup    = 1;
internal_speedup  = 1.0;

vc_busy_when_full = 0;

// Traffic
traffic = neighbor;
packet_size = 1;

// Simulation
sim_type = throughput;

injection_rate = 0.05;

END Configuration File: ./examples/bitrev
===== Time: 1000 =====
Class 0:
Minimum packet latency = 31
Average packet latency = 34.5343
Maximum packet latency = 63
Minimum network latency = 32
Average network latency = 35.5343
Maximum network latency = 64
Slowest packet = 194
Minimum flit latency = 32
Average flit latency = 35.5343
Maximum flit latency = 64
Slowest flit = 194
Minimum fragmentation = 0
Average fragmentation = 0
Maximum fragmentation = 0
Minimum injected packet rate = 0.041 (at node 5)
Average injected packet rate = 0.048875
Maximum injected packet rate = 0.054 (at node 1)
Minimum accepted packet rate = 0.04 (at node 13)
Average accepted packet rate = 0.047375
Maximum accepted packet rate = 0.053 (at node 6)
Minimum injected flit rate = 0.041 (at node 5)
Average injected flit rate = 0.048875
Maximum injected flit rate = 0.054 (at node 1)
Minimum accepted flit rate = 0.04 (at node 13)
Average accepted flit rate = 0.047375
Maximum accepted flit rate = 0.053 (at node 6)
Total number of injected packets = 782
Total number of injected flits = 782
Average injected packet length = 1
Total number of accepted packets = 758
Total number of accepted flits = 758
Average accepted packet length = 1
Total in-flight flits = 24 (0 measured)
===== Time: 2000 =====
Class 0:
Minimum packet latency = 31
Average packet latency = 34.7991
Maximum packet latency = 82
Minimum network latency = 32
Average network latency = 35.7991
Maximum network latency = 83
Slowest packet = 1415
Minimum flit latency = 32
Average flit latency = 35.7991
Maximum flit latency = 83
Slowest flit = 792
Minimum fragmentation = 0
Average fragmentation = 0
Maximum fragmentation = 0
Minimum injected packet rate = 0.0395 (at node 8)
Average injected packet rate = 0.049125
Maximum injected packet rate = 0.057 (at node 12)
Minimum accepted packet rate = 0.039 (at node 13)
Average accepted packet rate = 0.0482187
Maximum accepted packet rate = 0.056 (at node 1)
Minimum injected flit rate = 0.0395 (at node 8)
Average injected flit rate = 0.049125
Maximum injected flit rate = 0.057 (at node 12)
Minimum accepted flit rate = 0.039 (at node 13)
Average accepted flit rate = 0.0482187
Maximum accepted flit rate = 0.056 (at node 1)
Total number of injected packets = 1572
Total number of injected flits = 1572
Average injected packet length = 1
Total number of accepted packets = 1543
Total number of accepted flits = 1543
Average accepted packet length = 1
Total in-flight flits = 29 (0 measured)
===== Time: 3000 =====
Class 0:
Minimum packet latency = 31
Average packet latency = 34.7606
Maximum packet latency = 59
Minimum network latency = 32
Average network latency = 35.7606
Maximum network latency = 60
Slowest packet = 1907
Minimum flit latency = 32
Average flit latency = 35.7606
Maximum flit latency = 60
Slowest flit = 1907
Minimum fragmentation = 0
Average fragmentation = 0
Maximum fragmentation = 0
Minimum injected packet rate = 0.045 (at node 4)
Average injected packet rate = 0.0518125
Maximum injected packet rate = 0.059 (at node 1)
Minimum accepted packet rate = 0.045 (at node 14)
Average accepted packet rate = 0.0514375
Maximum accepted packet rate = 0.059 (at node 6)
Minimum injected flit rate = 0.045 (at node 4)
Average injected flit rate = 0.0518125
Maximum injected flit rate = 0.059 (at node 1)
Minimum accepted flit rate = 0.045 (at node 14)
Average accepted flit rate = 0.0514375
Maximum accepted flit rate = 0.059 (at node 6)
Total number of injected packets = 829
Total number of injected flits = 829
Average injected packet length = 1
Total number of accepted packets = 823
Total number of accepted flits = 823
Average accepted packet length = 1
Total in-flight flits = 35 (0 measured)
===== Time: 4000 =====
Class 0:
Minimum packet latency = 31
Average packet latency = 34.8901
Maximum packet latency = 79
Minimum network latency = 32
Average network latency = 35.8901
Maximum network latency = 80
Slowest packet = 3064
Minimum flit latency = 32
Average flit latency = 35.8821
Maximum flit latency = 80
Slowest flit = 3064
Minimum fragmentation = 0
Average fragmentation = 0
Maximum fragmentation = 0
Minimum injected packet rate = 0.035 (at node 0)
Average injected packet rate = 0.0480625
Maximum injected packet rate = 0.057 (at node 9)
Minimum accepted packet rate = 0.034 (at node 5)
Average accepted packet rate = 0.04825
Maximum accepted packet rate = 0.059 (at node 14)
Minimum injected flit rate = 0.035 (at node 0)
Average injected flit rate = 0.0480625
Maximum injected flit rate = 0.057 (at node 9)
Minimum accepted flit rate = 0.034 (at node 5)
Average accepted flit rate = 0.04825
Maximum accepted flit rate = 0.059 (at node 14)
Total number of injected packets = 769
Total number of injected flits = 769
Average injected packet length = 1
Total number of accepted packets = 772
Total number of accepted flits = 772
Average accepted packet length = 1
Total in-flight flits = 32 (32 measured)
===== Time: 5000 =====
Class 0:
Minimum packet latency = 31
Average packet latency = 34.8375
Maximum packet latency = 115
Minimum network latency = 32
Average network latency = 35.8375
Maximum network latency = 116
Slowest packet = 3402
Minimum flit latency = 32
Average flit latency = 35.8347
Maximum flit latency = 116
Slowest flit = 3402
Minimum fragmentation = 0
Average fragmentation = 0
Maximum fragmentation = 0
Minimum injected packet rate = 0.0365 (at node 0)
Average injected packet rate = 0.0476875
Maximum injected packet rate = 0.0575 (at node 9)
Minimum accepted packet rate = 0.037 (at node 5)
Average accepted packet rate = 0.0480312
Maximum accepted packet rate = 0.0575 (at node 14)
Minimum injected flit rate = 0.0365 (at node 0)
Average injected flit rate = 0.0476875
Maximum injected flit rate = 0.0575 (at node 9)
Minimum accepted flit rate = 0.037 (at node 5)
Average accepted flit rate = 0.0480312
Maximum accepted flit rate = 0.0575 (at node 14)
Total number of injected packets = 1526
Total number of injected flits = 1526
Average injected packet length = 1
Total number of accepted packets = 1537
Total number of accepted flits = 1537
Average accepted packet length = 1
Total in-flight flits = 24 (24 measured)
===== Time: 6000 =====
Class 0:
Minimum packet latency = 31
Average packet latency = 34.8108
Maximum packet latency = 115
Minimum network latency = 32
Average network latency = 35.8108
Maximum network latency = 116
Slowest packet = 3402
Minimum flit latency = 32
Average flit latency = 35.8093
Maximum flit latency = 116
Slowest flit = 3402
Minimum fragmentation = 0
Average fragmentation = 0
Maximum fragmentation = 0
Minimum injected packet rate = 0.041 (at node 0)
Average injected packet rate = 0.0481667
Maximum injected packet rate = 0.057 (at node 15)
Minimum accepted packet rate = 0.0413333 (at node 5)
Average accepted packet rate = 0.0483958
Maximum accepted packet rate = 0.0573333 (at node 0)
Minimum injected flit rate = 0.041 (at node 0)
Average injected flit rate = 0.0481667
Maximum injected flit rate = 0.057 (at node 15)
Minimum accepted flit rate = 0.0413333 (at node 5)
Average accepted flit rate = 0.0483958
Maximum accepted flit rate = 0.0573333 (at node 0)
Total number of injected packets = 2312
Total number of injected flits = 2312
Average injected packet length = 1
Total number of accepted packets = 2323
Total number of accepted flits = 2323
Average accepted packet length = 1
Total in-flight flits = 24 (24 measured)
===== Time: 7000 =====
Class 0:
Minimum packet latency = 31
Average packet latency = 34.8286
Maximum packet latency = 115
Minimum network latency = 32
Average network latency = 35.8286
Maximum network latency = 116
Slowest packet = 3402
Minimum flit latency = 32
Average flit latency = 35.8273
Maximum flit latency = 116
Slowest flit = 3402
Minimum fragmentation = 0
Average fragmentation = 0
Maximum fragmentation = 0
Minimum injected packet rate = 0.04275 (at node 0)
Average injected packet rate = 0.0488906
Maximum injected packet rate = 0.054 (at node 15)
Minimum accepted packet rate = 0.04325 (at node 5)
Average accepted packet rate = 0.0490312
Maximum accepted packet rate = 0.054 (at node 0)
Minimum injected flit rate = 0.04275 (at node 0)
Average injected flit rate = 0.0488906
Maximum injected flit rate = 0.054 (at node 15)
Minimum accepted flit rate = 0.04325 (at node 5)
Average accepted flit rate = 0.0490312
Maximum accepted flit rate = 0.054 (at node 0)
Total number of injected packets = 3129
Total number of injected flits = 3129
Average injected packet length = 1
Total number of accepted packets = 3138
Total number of accepted flits = 3138
Average accepted packet length = 1
Total in-flight flits = 26 (26 measured)
Draining remaining packets ...
Class 0:
Remaining flits: 5513 5514 5515 5516 5517 5518 5519 5520 5521 5522 [...] (17 flits)
Measured flits: 5513 5514 5515 5516 5517 5518 5519 5520 5521 5522 [...] (17 flits)
Class 0:
Remaining flits: 5517 5519 5520 5521 5522 5523 5524 5525 5526 5527 [...] (12 flits)
Measured flits: 5517 5519 5520 5521 5522 5523 5524 5525 5526 5527 [...] (12 flits)
Class 0:
Remaining flits: 5524 5525 5526 5527 5528 5529 (6 flits)
Measured flits: 5524 5525 5526 5527 5528 5529 (6 flits)
Class 0:
Remaining flits: 5526 (1 flits)
Measured flits: 5526 (1 flits)
Class 0:
Remaining flits: 5526 (1 flits)
Measured flits: 5526 (1 flits)
Class 0:
Remaining flits: 5526 (1 flits)
Measured flits: 5526 (1 flits)
Class 0:
Remaining flits: 5526 (1 flits)
Measured flits: 5526 (1 flits)
Class 0:
Remaining flits: 5526 (1 flits)
Measured flits: 5526 (1 flits)
Class 0:
Remaining flits: 5526 (1 flits)
Measured flits: 5526 (1 flits)
Class 0:
Remaining flits: 5526 (1 flits)
Measured flits: 5526 (1 flits)
Class 0:
Remaining flits: 5526 (1 flits)
Measured flits: 5526 (1 flits)
Class 0:
Remaining flits: 5526 (1 flits)
Measured flits: 5526 (1 flits)
Class 0:
Remaining flits: 5526 (1 flits)
Measured flits: 5526 (1 flits)
Class 0:
Remaining flits: 5526 (1 flits)
Measured flits: 5526 (1 flits)
Class 0:
Remaining flits: 5526 (1 flits)
Measured flits: 5526 (1 flits)
Class 0:
Remaining flits: 5526 (1 flits)
Measured flits: 5526 (1 flits)
Class 0:
Remaining flits: 5526 (1 flits)
Measured flits: 5526 (1 flits)
Class 0:
Remaining flits: 5526 (1 flits)
Measured flits: 5526 (1 flits)
Class 0:
Remaining flits: 5526 (1 flits)
Measured flits: 5526 (1 flits)
Class 0:
Remaining flits: 5526 (1 flits)
Measured flits: 5526 (1 flits)
Class 0:
Remaining flits: 5526 (1 flits)
Measured flits: 5526 (1 flits)
Class 0:
Remaining flits: 5526 (1 flits)
Measured flits: 5526 (1 flits)
Class 0:
Remaining flits: 5526 (1 flits)
Measured flits: 5526 (1 flits)
Class 0:
Remaining flits: 5526 (1 flits)
Measured flits: 5526 (1 flits)
Class 0:
Remaining flits: 5526 (1 flits)
Measured flits: 5526 (1 flits)
Class 0:
Remaining flits: 5526 (1 flits)
Measured flits: 5526 (1 flits)
Class 0:
Remaining flits: 5526 (1 flits)
Measured flits: 5526 (1 flits)
Class 0:
Remaining flits: 5526 (1 flits)
Measured flits: 5526 (1 flits)
Class 0:
Remaining flits: 5526 (1 flits)
Measured flits: 5526 (1 flits)
Class 0:
Remaining flits: 5526 (1 flits)
Measured flits: 5526 (1 flits)
Class 0:
Remaining flits: 5526 (1 flits)
Measured flits: 5526 (1 flits)
Class 0:
Remaining flits: 5526 (1 flits)
Measured flits: 5526 (1 flits)
Class 0:
Remaining flits: 5526 (1 flits)
Measured flits: 5526 (1 flits)
Class 0:
Remaining flits: 5526 (1 flits)
Measured flits: 5526 (1 flits)
Class 0:
Remaining flits: 5526 (1 flits)
Measured flits: 5526 (1 flits)
Class 0:
Remaining flits: 5526 (1 flits)
Measured flits: 5526 (1 flits)
Class 0:
Remaining flits: 5526 (1 flits)
Measured flits: 5526 (1 flits)
Class 0:
Remaining flits: 5526 (1 flits)
Measured flits: 5526 (1 flits)
Class 0:
Remaining flits: 5526 (1 flits)
Measured flits: 5526 (1 flits)
Class 0:
Remaining flits: 5526 (1 flits)
Measured flits: 5526 (1 flits)
Class 0:
Remaining flits: 5526 (1 flits)
Measured flits: 5526 (1 flits)
Class 0:
Remaining flits: 5526 (1 flits)
Measured flits: 5526 (1 flits)
Class 0:
Remaining flits: 5526 (1 flits)
Measured flits: 5526 (1 flits)
Class 0:
Remaining flits: 5526 (1 flits)
Measured flits: 5526 (1 flits)
Class 0:
Remaining flits: 5526 (1 flits)
Measured flits: 5526 (1 flits)
Class 0:
Remaining flits: 5526 (1 flits)
Measured flits: 5526 (1 flits)
Class 0:
Remaining flits: 5526 (1 flits)
Measured flits: 5526 (1 flits)
Class 0:
Remaining flits: 5526 (1 flits)
Measured flits: 5526 (1 flits)
Class 0:
Remaining flits: 5526 (1 flits)
Measured flits: 5526 (1 flits)
Class 0:
Remaining flits: 5526 (1 flits)
Measured flits: 5526 (1 flits)
Class 0:
Remaining flits: 5526 (1 flits)
Measured flits: 5526 (1 flits)
Class 0:
Remaining flits: 5526 (1 flits)
Measured flits: 5526 (1 flits)
Class 0:
Remaining flits: 5526 (1 flits)
Measured flits: 5526 (1 flits)
Class 0:
Remaining flits: 5526 (1 flits)
Measured flits: 5526 (1 flits)
Class 0:
Remaining flits: 5526 (1 flits)
Measured flits: 5526 (1 flits)
Class 0:
Remaining flits: 5526 (1 flits)
Measured flits: 5526 (1 flits)
Class 0:
Remaining flits: 5526 (1 flits)
Measured flits: 5526 (1 flits)
Class 0:
Remaining flits: 5526 (1 flits)
Measured flits: 5526 (1 flits)
Class 0:
Remaining flits: 5526 (1 flits)
Measured flits: 5526 (1 flits)
Class 0:
Remaining flits: 5526 (1 flits)
Measured flits: 5526 (1 flits)
Class 0:
Remaining flits: 5526 (1 flits)
Measured flits: 5526 (1 flits)
Class 0:
Remaining flits: 5526 (1 flits)
Measured flits: 5526 (1 flits)
Class 0:
Remaining flits: 5526 (1 flits)
Measured flits: 5526 (1 flits)
Class 0:
Remaining flits: 5526 (1 flits)
Measured flits: 5526 (1 flits)
Class 0:
Remaining flits: 5526 (1 flits)
Measured flits: 5526 (1 flits)
Class 0:
Remaining flits: 5526 (1 flits)
Measured flits: 5526 (1 flits)
Class 0:
Remaining flits: 5526 (1 flits)
Measured flits: 5526 (1 flits)
Class 0:
Remaining flits: 5526 (1 flits)
Measured flits: 5526 (1 flits)
Class 0:
Remaining flits: 5526 (1 flits)
Measured flits: 5526 (1 flits)
Class 0:
Remaining flits: 5526 (1 flits)
Measured flits: 5526 (1 flits)
Class 0:
Remaining flits: 5526 (1 flits)
Measured flits: 5526 (1 flits)
Class 0:
Remaining flits: 5526 (1 flits)
Measured flits: 5526 (1 flits)
Class 0:
Remaining flits: 5526 (1 flits)
Measured flits: 5526 (1 flits)
Class 0:
Remaining flits: 5526 (1 flits)
Measured flits: 5526 (1 flits)
Class 0:
Remaining flits: 5526 (1 flits)
Measured flits: 5526 (1 flits)
Class 0:
Remaining flits: 5526 (1 flits)
Measured flits: 5526 (1 flits)
Class 0:
Remaining flits: 5526 (1 flits)
Measured flits: 5526 (1 flits)
Class 0:
Remaining flits: 5526 (1 flits)
Measured flits: 5526 (1 flits)
Class 0:
Remaining flits: 5526 (1 flits)
Measured flits: 5526 (1 flits)
Class 0:
Remaining flits: 5526 (1 flits)
Measured flits: 5526 (1 flits)
Class 0:
Remaining flits: 5526 (1 flits)
Measured flits: 5526 (1 flits)
Class 0:
Remaining flits: 5526 (1 flits)
Measured flits: 5526 (1 flits)
Class 0:
Remaining flits: 5526 (1 flits)
Measured flits: 5526 (1 flits)
Class 0:
Remaining flits: 5526 (1 flits)
Measured flits: 5526 (1 flits)
Class 0:
Remaining flits: 5526 (1 flits)
Measured flits: 5526 (1 flits)
Class 0:
Remaining flits: 5526 (1 flits)
Measured flits: 5526 (1 flits)
Class 0:
Remaining flits: 5526 (1 flits)
Measured flits: 5526 (1 flits)
Class 0:
Remaining flits: 5526 (1 flits)
Measured flits: 5526 (1 flits)
Class 0:
Remaining flits: 5526 (1 flits)
Measured flits: 5526 (1 flits)
Class 0:
Remaining flits: 5526 (1 flits)
Measured flits: 5526 (1 flits)
Class 0:
Remaining flits: 5526 (1 flits)
Measured flits: 5526 (1 flits)
Class 0:
Remaining flits: 5526 (1 flits)
Measured flits: 5526 (1 flits)
Class 0:
Remaining flits: 5526 (1 flits)
Measured flits: 5526 (1 flits)
Class 0:
Remaining flits: 5526 (1 flits)
Measured flits: 5526 (1 flits)
Class 0:
Remaining flits: 5526 (1 flits)
Measured flits: 5526 (1 flits)
Class 0:
Remaining flits: 5526 (1 flits)
Measured flits: 5526 (1 flits)
Class 0:
Remaining flits: 5526 (1 flits)
Measured flits: 5526 (1 flits)
Class 0:
Remaining flits: 5526 (1 flits)
Measured flits: 5526 (1 flits)
Class 0:
Remaining flits: 5526 (1 flits)
Measured flits: 5526 (1 flits)
Class 0:
Remaining flits: 5526 (1 flits)
Measured flits: 5526 (1 flits)
Class 0:
Remaining flits: 5526 (1 flits)
Measured flits: 5526 (1 flits)
Time taken is 8000 cycles
====== Traffic class 0 ======

Total number of flits generated = 5530, changed lanes = 5311
Overall minimum packet latency = 31 (1 samples)
Overall average packet latency = 34.8277 (1 samples)
Overall maximum packet latency = 115 (1 samples)
Overall minimum network latency = 32 (1 samples)
Overall average network latency = 35.8277 (1 samples)
Overall maximum network latency = 116 (1 samples)
Overall minimum flit latency = 32 (1 samples)
Overall average flit latency = 35.8264 (1 samples)
Overall maximum flit latency = 116 (1 samples)
Overall minimum fragmentation = 0 (1 samples)
Overall average fragmentation = 0 (1 samples)
Overall maximum fragmentation = 0 (1 samples)
Overall minimum injected packet rate = 0.04275 (1 samples)
Overall average injected packet rate = 0.0488906 (1 samples)
Overall maximum injected packet rate = 0.054 (1 samples)
Overall minimum accepted packet rate = 0.04325 (1 samples)
Overall average accepted packet rate = 0.0490312 (1 samples)
Overall maximum accepted packet rate = 0.054 (1 samples)
Overall minimum injected flit rate = 0.04275 (1 samples)
Overall average injected flit rate = 0.0488906 (1 samples)
Overall maximum injected flit rate = 0.054 (1 samples)
Overall minimum accepted flit rate = 0.04325 (1 samples)
Overall average accepted flit rate = 0.0490312 (1 samples)
Overall maximum accepted flit rate = 0.054 (1 samples)
Overall average injected packet size = 1 (1 samples)
Overall average accepted packet size = 1 (1 samples)
Overall average hops = 3 (1 samples)
Overall throughput of the network (flits/cycle) = 1.38225
Overall throughput of the network (packets/cycle) = 1.38225
Total run time 4.60836
