make: Nothing to be done for 'all'.
Master: Running timer....
Master: Running SRC....
BEGIN Configuration File: ./examples/mesh88_lat_blackscholes
// $Id$

topology = mesh;
k = 8;
n = 2;

// Routing
routing_function = dor;

// Flow control
num_vcs     = 1;
vc_buf_size = 4;
wait_for_tail_credit = 1;

// Router architecture
vc_allocator = islip;
sw_allocator = islip;
alloc_iters  = 1;

credit_delay   = 1;
routing_delay  = 1;
vc_alloc_delay = 1;
sw_alloc_delay = 1;

input_speedup     = 1;
output_speedup    = 1;
internal_speedup  = 1.0;

vc_busy_when_full = 0;

// Traffic
workload=netrace({/home/sarab/Downloads/BookSim_Benchmark_files/fluidanimate_64c_simsmall.tra.bz2,100000000,1,2,1,1,0);

// Simulation
sim_type = workload;

END Configuration File: ./examples/mesh88_lat_blackscholes
Warming up...
===== Time: 10000 =====
Class 0:
Packets read from trace = 160 of 20989170 (0%)
Future packets = 1
Waiting packets = 0
Stalled packets = 135
Packets pending injection = 8
Packets in flight = 10
Minimum packet latency = 94
Average packet latency = 609
Maximum packet latency = 1491
Minimum network latency = 94
Average network latency = 608.333
Maximum network latency = 1487
Slowest packet = 6
Minimum flit latency = 46
Average flit latency = 272.8
Maximum flit latency = 1478
Slowest flit = 22
Minimum fragmentation = 0
Average fragmentation = 502.167
Maximum fragmentation = 1341
Minimum injected packet rate = 0 (at node 0)
Average injected packet rate = 2.34375e-05
Maximum injected packet rate = 0.0004 (at node 6)
Minimum accepted packet rate = 0 (at node 0)
Average accepted packet rate = 9.375e-06
Maximum accepted packet rate = 0.0003 (at node 58)
Minimum injected flit rate = 0 (at node 0)
Average injected flit rate = 9.375e-05
Maximum injected flit rate = 0.0019 (at node 6)
Minimum accepted flit rate = 0 (at node 0)
Average accepted flit rate = 3.90625e-05
Maximum accepted flit rate = 0.0011 (at node 58)
Total number of injected packets = 15
Total number of injected flits = 60
Average injected packet length = 4
Total number of accepted packets = 6
Total number of accepted flits = 25
Average accepted packet length = 4.16667
Total in-flight flits = 43 (0 measured)
===== Time: 20000 =====
Class 0:
Packets read from trace = 313 of 20989170 (0%)
Future packets = 1
Waiting packets = 0
Stalled packets = 272
Packets pending injection = 19
Packets in flight = 14
Minimum packet latency = 94
Average packet latency = 2492.57
Maximum packet latency = 13794
Minimum network latency = 94
Average network latency = 2492
Maximum network latency = 13794
Slowest packet = 3
Minimum flit latency = 46
Average flit latency = 964.118
Maximum flit latency = 13786
Slowest flit = 7
Minimum fragmentation = 0
Average fragmentation = 2385.29
Maximum fragmentation = 13684
Minimum injected packet rate = 0 (at node 0)
Average injected packet rate = 1.5625e-05
Maximum injected packet rate = 0.0002 (at node 6)
Minimum accepted packet rate = 0 (at node 0)
Average accepted packet rate = 5.46875e-06
Maximum accepted packet rate = 0.00015 (at node 58)
Minimum injected flit rate = 0 (at node 0)
Average injected flit rate = 6.5625e-05
Maximum injected flit rate = 0.00095 (at node 6)
Minimum accepted flit rate = 0 (at node 0)
Average accepted flit rate = 2.65625e-05
Maximum accepted flit rate = 0.00075 (at node 58)
Total number of injected packets = 20
Total number of injected flits = 84
Average injected packet length = 4.2
Total number of accepted packets = 7
Total number of accepted flits = 34
Average accepted packet length = 4.85714
Total in-flight flits = 59 (0 measured)
===== Time: 30000 =====
Class 0:
Packets read from trace = 463 of 20989170 (0%)
Future packets = 1
Waiting packets = 0
Stalled packets = 406
Packets pending injection = 33
Packets in flight = 16
Minimum packet latency = 94
Average packet latency = 2492.57
Maximum packet latency = 13794
Minimum network latency = 94
Average network latency = 2492
Maximum network latency = 13794
Slowest packet = 3
Minimum flit latency = 46
Average flit latency = 964.118
Maximum flit latency = 13786
Slowest flit = 7
Minimum fragmentation = 0
Average fragmentation = 2385.29
Maximum fragmentation = 13684
Minimum injected packet rate = 0 (at node 0)
Average injected packet rate = 1.14583e-05
Maximum injected packet rate = 0.000133333 (at node 6)
Minimum accepted packet rate = 0 (at node 0)
Average accepted packet rate = 3.64583e-06
Maximum accepted packet rate = 0.0001 (at node 58)
Minimum injected flit rate = 0 (at node 0)
Average injected flit rate = 4.84375e-05
Maximum injected flit rate = 0.000633333 (at node 6)
Minimum accepted flit rate = 0 (at node 0)
Average accepted flit rate = 1.77083e-05
Maximum accepted flit rate = 0.0005 (at node 58)
Total number of injected packets = 22
Total number of injected flits = 93
Average injected packet length = 4.22727
Total number of accepted packets = 7
Total number of accepted flits = 34
Average accepted packet length = 4.85714
Total in-flight flits = 69 (0 measured)
Warmup ends after 30000 cycles.
Beginning measurements...
===== Time: 40000 =====
Class 0:
Packets read from trace = 611 of 20989170 (0%)
Future packets = 1
Waiting packets = 0
Stalled packets = 540
Packets pending injection = 32
Packets in flight = 22
Minimum packet latency = 380
Average packet latency = 1369.71
Maximum packet latency = 2177
Minimum network latency = 380
Average network latency = 1368.86
Maximum network latency = 2174
Slowest packet = 33
Minimum flit latency = 65
Average flit latency = 5485.61
Maximum flit latency = 30206
Slowest flit = 14
Minimum fragmentation = 281
Average fragmentation = 866.714
Maximum fragmentation = 2082
Minimum injected packet rate = 0 (at node 0)
Average injected packet rate = 2.1875e-05
Maximum injected packet rate = 0.0004 (at node 5)
Minimum accepted packet rate = 0 (at node 0)
Average accepted packet rate = 1.40625e-05
Maximum accepted packet rate = 0.0004 (at node 47)
Minimum injected flit rate = 0 (at node 0)
Average injected flit rate = 0.000109375
Maximum injected flit rate = 0.002 (at node 5)
Minimum accepted flit rate = 0 (at node 0)
Average accepted flit rate = 7.65625e-05
Maximum accepted flit rate = 0.002 (at node 47)
Total number of injected packets = 14
Total number of injected flits = 70
Average injected packet length = 5
Total number of accepted packets = 9
Total number of accepted flits = 49
Average accepted packet length = 5.44444
Total in-flight flits = 95 (36 measured)
===== Time: 50000 =====
Class 0:
Packets read from trace = 754 of 20989170 (0%)
Future packets = 1
Waiting packets = 1
Stalled packets = 671
Packets pending injection = 38
Packets in flight = 23
Minimum packet latency = 380
Average packet latency = 2585.45
Maximum packet latency = 13237
Minimum network latency = 380
Average network latency = 2584.64
Maximum network latency = 13237
Slowest packet = 34
Minimum flit latency = 65
Average flit latency = 4192.97
Maximum flit latency = 30206
Slowest flit = 14
Minimum fragmentation = 281
Average fragmentation = 2229.73
Maximum fragmentation = 13168
Minimum injected packet rate = 0 (at node 0)
Average injected packet rate = 1.48437e-05
Maximum injected packet rate = 0.0002 (at node 3)
Minimum accepted packet rate = 0 (at node 0)
Average accepted packet rate = 1.01562e-05
Maximum accepted packet rate = 0.00025 (at node 23)
Minimum injected flit rate = 0 (at node 0)
Average injected flit rate = 7.42187e-05
Maximum injected flit rate = 0.001 (at node 3)
Minimum accepted flit rate = 0 (at node 0)
Average accepted flit rate = 5.39062e-05
Maximum accepted flit rate = 0.00145 (at node 23)
Total number of injected packets = 19
Total number of injected flits = 95
Average injected packet length = 5
Total number of accepted packets = 13
Total number of accepted flits = 69
Average accepted packet length = 5.30769
Total in-flight flits = 100 (41 measured)
===== Time: 60000 =====
Class 0:
Packets read from trace = 891 of 20989170 (0%)
Future packets = 1
Waiting packets = 0
Stalled packets = 796
Packets pending injection = 44
Packets in flight = 29
Minimum packet latency = 380
Average packet latency = 2553.58
Maximum packet latency = 13237
Minimum network latency = 380
Average network latency = 2552.83
Maximum network latency = 13237
Slowest packet = 34
Minimum flit latency = 65
Average flit latency = 3805.78
Maximum flit latency = 30206
Slowest flit = 14
Minimum fragmentation = 281
Average fragmentation = 2215.33
Maximum fragmentation = 13168
Minimum injected packet rate = 0 (at node 0)
Average injected packet rate = 1.30208e-05
Maximum injected packet rate = 0.000133333 (at node 3)
Minimum accepted packet rate = 0 (at node 0)
Average accepted packet rate = 7.29167e-06
Maximum accepted packet rate = 0.000166667 (at node 23)
Minimum injected flit rate = 0 (at node 0)
Average injected flit rate = 6.45833e-05
Maximum injected flit rate = 0.000666667 (at node 3)
Minimum accepted flit rate = 0 (at node 0)
Average accepted flit rate = 4.0625e-05
Maximum accepted flit rate = 0.000966667 (at node 23)
Total number of injected packets = 25
Total number of injected flits = 124
Average injected packet length = 4.96
Total number of accepted packets = 14
Total number of accepted flits = 78
Average accepted packet length = 5.57143
Total in-flight flits = 126 (67 measured)
===== Time: 70000 =====
Class 0:
Packets read from trace = 1020 of 20989170 (0%)
Future packets = 1
Waiting packets = 0
Stalled packets = 920
Packets pending injection = 47
Packets in flight = 31
Minimum packet latency = 380
Average packet latency = 2553.58
Maximum packet latency = 13237
Minimum network latency = 380
Average network latency = 2552.83
Maximum network latency = 13237
Slowest packet = 34
Minimum flit latency = 58
Average flit latency = 3623.11
Maximum flit latency = 30206
Slowest flit = 14
Minimum fragmentation = 281
Average fragmentation = 2215.33
Maximum fragmentation = 13168
Minimum injected packet rate = 0 (at node 0)
Average injected packet rate = 1.05469e-05
Maximum injected packet rate = 0.0001 (at node 3)
Minimum accepted packet rate = 0 (at node 0)
Average accepted packet rate = 5.46875e-06
Maximum accepted packet rate = 0.000125 (at node 23)
Minimum injected flit rate = 0 (at node 0)
Average injected flit rate = 5.23438e-05
Maximum injected flit rate = 0.0005 (at node 3)
Minimum accepted flit rate = 0 (at node 0)
Average accepted flit rate = 3.20313e-05
Maximum accepted flit rate = 0.000725 (at node 23)
Total number of injected packets = 27
Total number of injected flits = 134
Average injected packet length = 4.96296
Total number of accepted packets = 14
Total number of accepted flits = 82
Average accepted packet length = 5.85714
Total in-flight flits = 132 (73 measured)
===== Time: 80000 =====
Class 0:
Packets read from trace = 1208 of 20989170 (0%)
Future packets = 1
Waiting packets = 0
Stalled packets = 1098
Packets pending injection = 53
Packets in flight = 34
Minimum packet latency = 380
Average packet latency = 2553.58
Maximum packet latency = 13237
Minimum network latency = 380
Average network latency = 2552.83
Maximum network latency = 13237
Slowest packet = 34
Minimum flit latency = 58
Average flit latency = 7434
Maximum flit latency = 74417
Slowest flit = 16
Minimum fragmentation = 281
Average fragmentation = 2215.33
Maximum fragmentation = 13168
Minimum injected packet rate = 0 (at node 0)
Average injected packet rate = 1e-05
Maximum injected packet rate = 8e-05 (at node 3)
Minimum accepted packet rate = 0 (at node 0)
Average accepted packet rate = 4.6875e-06
Maximum accepted packet rate = 0.0001 (at node 23)
Minimum injected flit rate = 0 (at node 0)
Average injected flit rate = 4.90625e-05
Maximum injected flit rate = 0.0004 (at node 3)
Minimum accepted flit rate = 0 (at node 0)
Average accepted flit rate = 2.71875e-05
Maximum accepted flit rate = 0.00058 (at node 23)
Total number of injected packets = 32
Total number of injected flits = 157
Average injected packet length = 4.90625
Total number of accepted packets = 15
Total number of accepted flits = 87
Average accepted packet length = 5.8
Total in-flight flits = 147 (93 measured)
===== Time: 90000 =====
Class 0:
Packets read from trace = 1238 of 20989170 (0%)
Future packets = 1
Waiting packets = 0
Stalled packets = 1128
Packets pending injection = 53
Packets in flight = 34
Minimum packet latency = 380
Average packet latency = 2553.58
Maximum packet latency = 13237
Minimum network latency = 380
Average network latency = 2552.83
Maximum network latency = 13237
Slowest packet = 34
Minimum flit latency = 58
Average flit latency = 7434
Maximum flit latency = 74417
Slowest flit = 16
Minimum fragmentation = 281
Average fragmentation = 2215.33
Maximum fragmentation = 13168
Minimum injected packet rate = 0 (at node 0)
Average injected packet rate = 8.33333e-06
Maximum injected packet rate = 6.66667e-05 (at node 3)
Minimum accepted packet rate = 0 (at node 0)
Average accepted packet rate = 3.90625e-06
Maximum accepted packet rate = 8.33333e-05 (at node 23)
Minimum injected flit rate = 0 (at node 0)
Average injected flit rate = 4.08854e-05
Maximum injected flit rate = 0.000333333 (at node 3)
Minimum accepted flit rate = 0 (at node 0)
Average accepted flit rate = 2.26562e-05
Maximum accepted flit rate = 0.000483333 (at node 23)
Total number of injected packets = 32
Total number of injected flits = 157
Average injected packet length = 4.90625
Total number of accepted packets = 15
Total number of accepted flits = 87
Average accepted packet length = 5.8
Total in-flight flits = 147 (93 measured)
===== Time: 100000 =====
Class 0:
Packets read from trace = 1252 of 20989170 (0%)
Future packets = 1
Waiting packets = 0
Stalled packets = 1142
Packets pending injection = 53
Packets in flight = 34
Minimum packet latency = 380
Average packet latency = 2553.58
Maximum packet latency = 13237
Minimum network latency = 380
Average network latency = 2552.83
Maximum network latency = 13237
Slowest packet = 34
Minimum flit latency = 58
Average flit latency = 7434
Maximum flit latency = 74417
Slowest flit = 16
Minimum fragmentation = 281
Average fragmentation = 2215.33
Maximum fragmentation = 13168
Minimum injected packet rate = 0 (at node 0)
Average injected packet rate = 7.14286e-06
Maximum injected packet rate = 5.71429e-05 (at node 3)
Minimum accepted packet rate = 0 (at node 0)
Average accepted packet rate = 3.34821e-06
Maximum accepted packet rate = 7.14286e-05 (at node 23)
Minimum injected flit rate = 0 (at node 0)
Average injected flit rate = 3.50446e-05
Maximum injected flit rate = 0.000285714 (at node 3)
Minimum accepted flit rate = 0 (at node 0)
Average accepted flit rate = 1.94196e-05
Maximum accepted flit rate = 0.000414286 (at node 23)
Total number of injected packets = 32
Total number of injected flits = 157
Average injected packet length = 4.90625
Total number of accepted packets = 15
Total number of accepted flits = 87
Average accepted packet length = 5.8
Total in-flight flits = 147 (93 measured)
===== Time: 110000 =====
Class 0:
Packets read from trace = 1280 of 20989170 (0%)
Future packets = 1
Waiting packets = 0
Stalled packets = 1167
Packets pending injection = 55
Packets in flight = 35
Minimum packet latency = 380
Average packet latency = 2553.58
Maximum packet latency = 13237
Minimum network latency = 380
Average network latency = 2552.83
Maximum network latency = 13237
Slowest packet = 34
Minimum flit latency = 58
Average flit latency = 7434
Maximum flit latency = 74417
Slowest flit = 16
Minimum fragmentation = 281
Average fragmentation = 2215.33
Maximum fragmentation = 13168
Minimum injected packet rate = 0 (at node 0)
Average injected packet rate = 6.44531e-06
Maximum injected packet rate = 5e-05 (at node 3)
Minimum accepted packet rate = 0 (at node 0)
Average accepted packet rate = 2.92969e-06
Maximum accepted packet rate = 6.25e-05 (at node 23)
Minimum injected flit rate = 0 (at node 0)
Average injected flit rate = 3.16406e-05
Maximum injected flit rate = 0.00025 (at node 3)
Minimum accepted flit rate = 0 (at node 0)
Average accepted flit rate = 1.69922e-05
Maximum accepted flit rate = 0.0003625 (at node 23)
Total number of injected packets = 33
Total number of injected flits = 162
Average injected packet length = 4.90909
Total number of accepted packets = 15
Total number of accepted flits = 87
Average accepted packet length = 5.8
Total in-flight flits = 152 (98 measured)
===== Time: 120000 =====
Class 0:
Packets read from trace = 1299 of 20989170 (0%)
Future packets = 1
Waiting packets = 0
Stalled packets = 1186
Packets pending injection = 55
Packets in flight = 35
Minimum packet latency = 380
Average packet latency = 2553.58
Maximum packet latency = 13237
Minimum network latency = 380
Average network latency = 2552.83
Maximum network latency = 13237
Slowest packet = 34
Minimum flit latency = 58
Average flit latency = 7434
Maximum flit latency = 74417
Slowest flit = 16
Minimum fragmentation = 281
Average fragmentation = 2215.33
Maximum fragmentation = 13168
Minimum injected packet rate = 0 (at node 0)
Average injected packet rate = 5.72917e-06
Maximum injected packet rate = 4.44444e-05 (at node 3)
Minimum accepted packet rate = 0 (at node 0)
Average accepted packet rate = 2.60417e-06
Maximum accepted packet rate = 5.55556e-05 (at node 23)
Minimum injected flit rate = 0 (at node 0)
Average injected flit rate = 2.8125e-05
Maximum injected flit rate = 0.000222222 (at node 3)
Minimum accepted flit rate = 0 (at node 0)
Average accepted flit rate = 1.51042e-05
Maximum accepted flit rate = 0.000322222 (at node 23)
Total number of injected packets = 33
Total number of injected flits = 162
Average injected packet length = 4.90909
Total number of accepted packets = 15
Total number of accepted flits = 87
Average accepted packet length = 5.8
Total in-flight flits = 152 (98 measured)
===== Time: 130000 =====
Class 0:
Packets read from trace = 1319 of 20989170 (0%)
Future packets = 1
Waiting packets = 0
Stalled packets = 1206
Packets pending injection = 55
Packets in flight = 35
Minimum packet latency = 380
Average packet latency = 2553.58
Maximum packet latency = 13237
Minimum network latency = 380
Average network latency = 2552.83
Maximum network latency = 13237
Slowest packet = 34
Minimum flit latency = 58
Average flit latency = 7434
Maximum flit latency = 74417
Slowest flit = 16
Minimum fragmentation = 281
Average fragmentation = 2215.33
Maximum fragmentation = 13168
Minimum injected packet rate = 0 (at node 0)
Average injected packet rate = 5.15625e-06
Maximum injected packet rate = 4e-05 (at node 3)
Minimum accepted packet rate = 0 (at node 0)
Average accepted packet rate = 2.34375e-06
Maximum accepted packet rate = 5e-05 (at node 23)
Minimum injected flit rate = 0 (at node 0)
Average injected flit rate = 2.53125e-05
Maximum injected flit rate = 0.0002 (at node 3)
Minimum accepted flit rate = 0 (at node 0)
Average accepted flit rate = 1.35938e-05
Maximum accepted flit rate = 0.00029 (at node 23)
Total number of injected packets = 33
Total number of injected flits = 162
Average injected packet length = 4.90909
Total number of accepted packets = 15
Total number of accepted flits = 87
Average accepted packet length = 5.8
Total in-flight flits = 152 (98 measured)
Completed measurements after 130000 cycles.
Draining remaining packets ...
Class 0:
Remaining flits: 32 33 34 35 36 37 38 39 40 41 [...] (152 flits)
Measured flits: 108 109 110 111 112 118 119 120 121 122 [...] (98 flits)
Class 0:
Remaining flits: 32 33 34 35 36 37 38 39 40 41 [...] (152 flits)
Measured flits: 108 109 110 111 112 118 119 120 121 122 [...] (98 flits)
Class 0:
Remaining flits: 32 33 34 35 36 37 38 39 40 41 [...] (149 flits)
Measured flits: 108 109 110 111 112 118 119 120 121 122 [...] (95 flits)
Class 0:
Remaining flits: 32 33 34 35 36 37 38 39 40 41 [...] (144 flits)
Measured flits: 108 109 110 111 112 118 119 120 121 122 [...] (91 flits)
Class 0:
Remaining flits: 32 33 34 35 36 37 38 39 40 41 [...] (135 flits)
Measured flits: 108 109 110 111 112 118 119 120 121 122 [...] (84 flits)
Class 0:
Remaining flits: 32 33 34 35 36 37 38 39 40 41 [...] (122 flits)
Measured flits: 108 109 110 111 112 118 119 120 121 122 [...] (75 flits)
Class 0:
Remaining flits: 32 33 34 35 36 37 38 39 40 41 [...] (121 flits)
Measured flits: 108 109 110 111 112 118 119 120 121 122 [...] (75 flits)
Class 0:
Remaining flits: 32 33 34 35 36 37 38 39 40 41 [...] (117 flits)
Measured flits: 108 109 110 111 112 118 119 120 121 122 [...] (72 flits)
Class 0:
Remaining flits: 32 33 34 35 36 37 38 39 40 41 [...] (106 flits)
Measured flits: 108 109 110 111 112 118 119 120 121 122 [...] (65 flits)
Class 0:
Remaining flits: 32 33 34 35 36 37 43 44 45 46 [...] (101 flits)
Measured flits: 108 109 110 111 112 118 119 120 121 122 [...] (65 flits)
Class 0:
Remaining flits: 32 34 35 36 37 43 44 45 46 47 [...] (99 flits)
Measured flits: 108 109 110 111 112 118 119 120 121 122 [...] (64 flits)
Class 0:
Remaining flits: 32 43 44 45 46 47 48 49 50 51 [...] (91 flits)
Measured flits: 108 109 110 111 112 118 119 120 121 122 [...] (60 flits)
Class 0:
Remaining flits: 32 43 44 45 46 47 48 49 50 51 [...] (91 flits)
Measured flits: 108 109 110 111 112 118 119 120 121 122 [...] (60 flits)
Class 0:
Remaining flits: 32 43 44 45 46 47 48 49 50 51 [...] (85 flits)
Measured flits: 109 110 111 112 118 119 120 121 122 123 [...] (57 flits)
Class 0:
Remaining flits: 32 43 44 45 46 47 48 49 50 51 [...] (76 flits)
Measured flits: 118 119 120 121 122 123 124 125 126 127 [...] (50 flits)
Class 0:
Remaining flits: 32 44 45 46 47 48 49 50 51 52 [...] (71 flits)
Measured flits: 118 119 120 121 122 123 124 125 126 127 [...] (50 flits)
Class 0:
Remaining flits: 32 48 49 50 51 52 88 89 90 91 [...] (66 flits)
Measured flits: 118 119 120 121 122 123 124 125 126 127 [...] (50 flits)
Class 0:
Remaining flits: 32 48 49 50 51 52 88 89 90 91 [...] (61 flits)
Measured flits: 118 119 120 121 122 123 124 125 126 127 [...] (45 flits)
Class 0:
Remaining flits: 32 48 49 50 51 52 93 94 95 96 [...] (56 flits)
Measured flits: 118 119 120 121 122 123 124 125 126 127 [...] (45 flits)
Class 0:
Remaining flits: 32 48 49 50 51 52 93 94 95 96 [...] (56 flits)
Measured flits: 118 119 120 121 122 123 124 125 126 127 [...] (45 flits)
Class 0:
Remaining flits: 32 48 49 50 51 52 93 94 95 96 [...] (51 flits)
Measured flits: 118 119 120 121 122 123 124 125 126 127 [...] (40 flits)
Class 0:
Remaining flits: 32 48 49 50 51 52 93 94 95 96 [...] (51 flits)
Measured flits: 118 119 120 121 122 123 124 125 126 127 [...] (40 flits)
Class 0:
Remaining flits: 32 48 49 50 51 52 93 94 95 96 [...] (51 flits)
Measured flits: 118 119 120 121 122 123 124 125 126 127 [...] (40 flits)
Class 0:
Remaining flits: 32 48 49 50 51 52 93 94 95 96 [...] (51 flits)
Measured flits: 118 119 120 121 122 123 124 125 126 127 [...] (40 flits)
Class 0:
Remaining flits: 32 48 49 50 51 52 93 94 95 96 [...] (51 flits)
Measured flits: 118 119 120 121 122 123 124 125 126 127 [...] (40 flits)
Class 0:
Remaining flits: 32 48 49 50 51 52 93 94 95 96 [...] (51 flits)
Measured flits: 118 119 120 121 122 123 124 125 126 127 [...] (40 flits)
Class 0:
Remaining flits: 32 48 49 50 51 52 93 94 95 96 [...] (51 flits)
Measured flits: 118 119 120 121 122 123 124 125 126 127 [...] (40 flits)
Class 0:
Remaining flits: 32 48 49 50 51 52 93 94 95 96 [...] (51 flits)
Measured flits: 118 119 120 121 122 123 124 125 126 127 [...] (40 flits)
Class 0:
Remaining flits: 32 48 49 50 51 52 93 94 95 96 [...] (51 flits)
Measured flits: 118 119 120 121 122 123 124 125 126 127 [...] (40 flits)
Class 0:
Remaining flits: 32 48 49 50 51 52 93 94 95 96 [...] (51 flits)
Measured flits: 118 119 120 121 122 123 124 125 126 127 [...] (40 flits)
Class 0:
Remaining flits: 32 48 49 50 51 52 93 94 95 96 [...] (51 flits)
Measured flits: 118 119 120 121 122 123 124 125 126 127 [...] (40 flits)
Class 0:
Remaining flits: 32 48 49 50 51 52 93 94 95 96 [...] (51 flits)
Measured flits: 118 119 120 121 122 123 124 125 126 127 [...] (40 flits)
Class 0:
Remaining flits: 32 48 49 50 51 52 93 94 95 96 [...] (51 flits)
Measured flits: 118 119 120 121 122 123 124 125 126 127 [...] (40 flits)
Class 0:
Remaining flits: 32 48 49 50 51 52 93 94 95 96 [...] (51 flits)
Measured flits: 118 119 120 121 122 123 124 125 126 127 [...] (40 flits)
Class 0:
Remaining flits: 32 48 49 50 51 52 93 94 95 96 [...] (51 flits)
Measured flits: 118 119 120 121 122 123 124 125 126 127 [...] (40 flits)
Class 0:
Remaining flits: 32 48 49 50 51 52 93 94 95 96 [...] (51 flits)
Measured flits: 118 119 120 121 122 123 124 125 126 127 [...] (40 flits)
Class 0:
Remaining flits: 32 48 49 50 51 52 93 94 95 96 [...] (51 flits)
Measured flits: 118 119 120 121 122 123 124 125 126 127 [...] (40 flits)
Class 0:
Remaining flits: 32 48 49 50 51 52 93 94 95 96 [...] (51 flits)
Measured flits: 118 119 120 121 122 123 124 125 126 127 [...] (40 flits)
Class 0:
Remaining flits: 32 48 49 50 51 52 93 94 95 96 [...] (51 flits)
Measured flits: 118 119 120 121 122 123 124 125 126 127 [...] (40 flits)
Class 0:
Remaining flits: 32 48 49 50 51 52 93 94 95 96 [...] (51 flits)
Measured flits: 118 119 120 121 122 123 124 125 126 127 [...] (40 flits)
Class 0:
Remaining flits: 32 48 49 50 51 52 93 94 95 96 [...] (51 flits)
Measured flits: 118 119 120 121 122 123 124 125 126 127 [...] (40 flits)
Class 0:
Remaining flits: 32 48 49 50 51 52 93 94 95 96 [...] (51 flits)
Measured flits: 118 119 120 121 122 123 124 125 126 127 [...] (40 flits)
Class 0:
Remaining flits: 32 48 49 50 51 52 93 94 95 96 [...] (51 flits)
Measured flits: 118 119 120 121 122 123 124 125 126 127 [...] (40 flits)
Class 0:
Remaining flits: 32 48 49 50 51 52 93 94 95 96 [...] (51 flits)
Measured flits: 118 119 120 121 122 123 124 125 126 127 [...] (40 flits)
Class 0:
Remaining flits: 32 48 49 50 51 52 93 94 95 96 [...] (51 flits)
Measured flits: 118 119 120 121 122 123 124 125 126 127 [...] (40 flits)
Class 0:
Remaining flits: 32 48 49 50 51 52 93 94 95 96 [...] (51 flits)
Measured flits: 118 119 120 121 122 123 124 125 126 127 [...] (40 flits)
Class 0:
Remaining flits: 32 48 49 50 51 52 93 94 95 96 [...] (51 flits)
Measured flits: 118 119 120 121 122 123 124 125 126 127 [...] (40 flits)
Class 0:
Remaining flits: 32 48 49 50 51 52 93 94 95 96 [...] (51 flits)
Measured flits: 118 119 120 121 122 123 124 125 126 127 [...] (40 flits)
Class 0:
Remaining flits: 32 48 49 50 51 52 93 94 95 96 [...] (51 flits)
Measured flits: 118 119 120 121 122 123 124 125 126 127 [...] (40 flits)
Class 0:
Remaining flits: 32 48 49 50 51 52 93 94 95 96 [...] (51 flits)
Measured flits: 118 119 120 121 122 123 124 125 126 127 [...] (40 flits)
Class 0:
Remaining flits: 32 48 49 50 51 52 93 94 95 96 [...] (51 flits)
Measured flits: 118 119 120 121 122 123 124 125 126 127 [...] (40 flits)
Class 0:
Remaining flits: 32 48 49 50 51 52 93 94 95 96 [...] (51 flits)
Measured flits: 118 119 120 121 122 123 124 125 126 127 [...] (40 flits)
Class 0:
Remaining flits: 32 48 49 50 51 52 93 94 95 96 [...] (51 flits)
Measured flits: 118 119 120 121 122 123 124 125 126 127 [...] (40 flits)
Class 0:
Remaining flits: 32 48 49 50 51 52 93 94 95 96 [...] (51 flits)
Measured flits: 118 119 120 121 122 123 124 125 126 127 [...] (40 flits)
Class 0:
Remaining flits: 32 48 49 50 51 52 93 94 95 96 [...] (51 flits)
Measured flits: 118 119 120 121 122 123 124 125 126 127 [...] (40 flits)
Class 0:
Remaining flits: 32 48 49 50 51 52 93 94 95 96 [...] (51 flits)
Measured flits: 118 119 120 121 122 123 124 125 126 127 [...] (40 flits)
Class 0:
Remaining flits: 32 48 49 50 51 52 93 94 95 96 [...] (51 flits)
Measured flits: 118 119 120 121 122 123 124 125 126 127 [...] (40 flits)
Class 0:
Remaining flits: 32 48 49 50 51 52 93 94 95 96 [...] (51 flits)
Measured flits: 118 119 120 121 122 123 124 125 126 127 [...] (40 flits)
Class 0:
Remaining flits: 32 48 49 50 51 52 93 94 95 96 [...] (51 flits)
Measured flits: 118 119 120 121 122 123 124 125 126 127 [...] (40 flits)
Class 0:
Remaining flits: 32 48 49 50 51 52 93 94 95 96 [...] (51 flits)
Measured flits: 118 119 120 121 122 123 124 125 126 127 [...] (40 flits)
Class 0:
Remaining flits: 32 48 49 50 51 52 93 94 95 96 [...] (51 flits)
Measured flits: 118 119 120 121 122 123 124 125 126 127 [...] (40 flits)
Class 0:
Remaining flits: 32 48 49 50 51 52 93 94 95 96 [...] (51 flits)
Measured flits: 118 119 120 121 122 123 124 125 126 127 [...] (40 flits)
Class 0:
Remaining flits: 32 48 49 50 51 52 93 94 95 96 [...] (51 flits)
Measured flits: 118 119 120 121 122 123 124 125 126 127 [...] (40 flits)
Class 0:
Remaining flits: 32 48 49 50 51 52 93 94 95 96 [...] (51 flits)
Measured flits: 118 119 120 121 122 123 124 125 126 127 [...] (40 flits)
Class 0:
Remaining flits: 32 48 49 50 51 52 93 94 95 96 [...] (51 flits)
Measured flits: 118 119 120 121 122 123 124 125 126 127 [...] (40 flits)
Class 0:
Remaining flits: 32 48 49 50 51 52 93 94 95 96 [...] (51 flits)
Measured flits: 118 119 120 121 122 123 124 125 126 127 [...] (40 flits)
Class 0:
Remaining flits: 32 48 49 50 51 52 93 94 95 96 [...] (51 flits)
Measured flits: 118 119 120 121 122 123 124 125 126 127 [...] (40 flits)
Class 0:
Remaining flits: 32 48 49 50 51 52 93 94 95 96 [...] (51 flits)
Measured flits: 118 119 120 121 122 123 124 125 126 127 [...] (40 flits)
Class 0:
Remaining flits: 32 48 49 50 51 52 93 94 95 96 [...] (51 flits)
Measured flits: 118 119 120 121 122 123 124 125 126 127 [...] (40 flits)
Class 0:
Remaining flits: 32 48 49 50 51 52 93 94 95 96 [...] (51 flits)
Measured flits: 118 119 120 121 122 123 124 125 126 127 [...] (40 flits)
Class 0:
Remaining flits: 32 48 49 50 51 52 93 94 95 96 [...] (51 flits)
Measured flits: 118 119 120 121 122 123 124 125 126 127 [...] (40 flits)
Class 0:
Remaining flits: 32 48 49 50 51 52 93 94 95 96 [...] (51 flits)
Measured flits: 118 119 120 121 122 123 124 125 126 127 [...] (40 flits)
Class 0:
Remaining flits: 32 48 49 50 51 52 93 94 95 96 [...] (51 flits)
Measured flits: 118 119 120 121 122 123 124 125 126 127 [...] (40 flits)
Class 0:
Remaining flits: 32 48 49 50 51 52 93 94 95 96 [...] (51 flits)
Measured flits: 118 119 120 121 122 123 124 125 126 127 [...] (40 flits)
Class 0:
Remaining flits: 32 48 49 50 51 52 93 94 95 96 [...] (51 flits)
Measured flits: 118 119 120 121 122 123 124 125 126 127 [...] (40 flits)
Class 0:
Remaining flits: 32 48 49 50 51 52 93 94 95 96 [...] (51 flits)
Measured flits: 118 119 120 121 122 123 124 125 126 127 [...] (40 flits)
Class 0:
Remaining flits: 32 48 49 50 51 52 93 94 95 96 [...] (51 flits)
Measured flits: 118 119 120 121 122 123 124 125 126 127 [...] (40 flits)
Class 0:
Remaining flits: 32 48 49 50 51 52 93 94 95 96 [...] (51 flits)
Measured flits: 118 119 120 121 122 123 124 125 126 127 [...] (40 flits)
Class 0:
Remaining flits: 32 48 49 50 51 52 93 94 95 96 [...] (51 flits)
Measured flits: 118 119 120 121 122 123 124 125 126 127 [...] (40 flits)
Class 0:
Remaining flits: 32 48 49 50 51 52 93 94 95 96 [...] (51 flits)
Measured flits: 118 119 120 121 122 123 124 125 126 127 [...] (40 flits)
Class 0:
Remaining flits: 32 48 49 50 51 52 93 94 95 96 [...] (51 flits)
Measured flits: 118 119 120 121 122 123 124 125 126 127 [...] (40 flits)
Class 0:
Remaining flits: 32 48 49 50 51 52 93 94 95 96 [...] (51 flits)
Measured flits: 118 119 120 121 122 123 124 125 126 127 [...] (40 flits)
Class 0:
Remaining flits: 32 48 49 50 51 52 93 94 95 96 [...] (51 flits)
Measured flits: 118 119 120 121 122 123 124 125 126 127 [...] (40 flits)
Class 0:
Remaining flits: 32 48 49 50 51 52 93 94 95 96 [...] (51 flits)
Measured flits: 118 119 120 121 122 123 124 125 126 127 [...] (40 flits)
Class 0:
Remaining flits: 32 48 49 50 51 52 93 94 95 96 [...] (51 flits)
Measured flits: 118 119 120 121 122 123 124 125 126 127 [...] (40 flits)
Class 0:
Remaining flits: 32 48 49 50 51 52 93 94 95 96 [...] (51 flits)
Measured flits: 118 119 120 121 122 123 124 125 126 127 [...] (40 flits)
Class 0:
Remaining flits: 32 48 49 50 51 52 93 94 95 96 [...] (51 flits)
Measured flits: 118 119 120 121 122 123 124 125 126 127 [...] (40 flits)
Class 0:
Remaining flits: 32 48 49 50 51 52 93 94 95 96 [...] (51 flits)
Measured flits: 118 119 120 121 122 123 124 125 126 127 [...] (40 flits)
Class 0:
Remaining flits: 32 48 49 50 51 52 93 94 95 96 [...] (51 flits)
Measured flits: 118 119 120 121 122 123 124 125 126 127 [...] (40 flits)
Class 0:
Remaining flits: 32 48 49 50 51 52 93 94 95 96 [...] (51 flits)
Measured flits: 118 119 120 121 122 123 124 125 126 127 [...] (40 flits)
Class 0:
Remaining flits: 32 48 49 50 51 52 93 94 95 96 [...] (51 flits)
Measured flits: 118 119 120 121 122 123 124 125 126 127 [...] (40 flits)
Class 0:
Remaining flits: 32 48 49 50 51 52 93 94 95 96 [...] (51 flits)
Measured flits: 118 119 120 121 122 123 124 125 126 127 [...] (40 flits)
Class 0:
Remaining flits: 32 48 49 50 51 52 93 94 95 96 [...] (51 flits)
Measured flits: 118 119 120 121 122 123 124 125 126 127 [...] (40 flits)
Class 0:
Remaining flits: 32 48 49 50 51 52 93 94 95 96 [...] (51 flits)
Measured flits: 118 119 120 121 122 123 124 125 126 127 [...] (40 flits)
Class 0:
Remaining flits: 32 48 49 50 51 52 93 94 95 96 [...] (51 flits)
Measured flits: 118 119 120 121 122 123 124 125 126 127 [...] (40 flits)
Class 0:
Remaining flits: 32 48 49 50 51 52 93 94 95 96 [...] (51 flits)
Measured flits: 118 119 120 121 122 123 124 125 126 127 [...] (40 flits)
Class 0:
Remaining flits: 32 48 49 50 51 52 93 94 95 96 [...] (51 flits)
Measured flits: 118 119 120 121 122 123 124 125 126 127 [...] (40 flits)
Class 0:
Remaining flits: 32 48 49 50 51 52 93 94 95 96 [...] (51 flits)
Measured flits: 118 119 120 121 122 123 124 125 126 127 [...] (40 flits)
Class 0:
Remaining flits: 32 48 49 50 51 52 93 94 95 96 [...] (51 flits)
Measured flits: 118 119 120 121 122 123 124 125 126 127 [...] (40 flits)
Class 0:
Remaining flits: 32 48 49 50 51 52 93 94 95 96 [...] (51 flits)
Measured flits: 118 119 120 121 122 123 124 125 126 127 [...] (40 flits)
Class 0:
Remaining flits: 32 48 49 50 51 52 93 94 95 96 [...] (51 flits)
Measured flits: 118 119 120 121 122 123 124 125 126 127 [...] (40 flits)
Time taken is 131000 cycles
====== Traffic class 0 ======

Total number of flits generated = 273, changed lanes = 0
Overall minimum packet latency = 380 (1 samples)
Overall average packet latency = 39794.3 (1 samples)
Overall maximum packet latency = 98753 (1 samples)
Overall minimum network latency = 380 (1 samples)
Overall average network latency = 38198.3 (1 samples)
Overall maximum network latency = 98753 (1 samples)
Overall minimum flit latency = 58 (1 samples)
Overall average flit latency = 47206.8 (1 samples)
Overall maximum flit latency = 126994 (1 samples)
Overall minimum fragmentation = 4 (1 samples)
Overall average fragmentation = 9788.88 (1 samples)
Overall maximum fragmentation = 83471 (1 samples)
Overall minimum injected packet rate = 0 (1 samples)
Overall average injected packet rate = 5.15625e-06 (1 samples)
Overall maximum injected packet rate = 4e-05 (1 samples)
Overall minimum accepted packet rate = 0 (1 samples)
Overall average accepted packet rate = 2.34375e-06 (1 samples)
Overall maximum accepted packet rate = 5e-05 (1 samples)
Overall minimum injected flit rate = 0 (1 samples)
Overall average injected flit rate = 2.53125e-05 (1 samples)
Overall maximum injected flit rate = 0.0002 (1 samples)
Overall minimum accepted flit rate = 0 (1 samples)
Overall average accepted flit rate = 1.35938e-05 (1 samples)
Overall maximum accepted flit rate = 0.00029 (1 samples)
Overall average injected packet size = 4.90909 (1 samples)
Overall average accepted packet size = 5.8 (1 samples)
Overall average hops = 7.92308 (1 samples)
Overall throughput of the network (flits/cycle) = 0.00222
Overall throughput of the network (packets/cycle) = 0.00046
Overall workload runtime = 100000 (1 samples)

The distribution of the source packets of size 1 is: 

Source [0] = 0
Source [1] = 0
Source [2] = 1
Source [3] = 0
Source [4] = 0
Source [5] = 0
Source [6] = 0
Source [7] = 0
Source [8] = 0
Source [9] = 0
Source [10] = 0
Source [11] = 0
Source [12] = 0
Source [13] = 0
Source [14] = 0
Source [15] = 0
Source [16] = 0
Source [17] = 0
Source [18] = 0
Source [19] = 0
Source [20] = 0
Source [21] = 0
Source [22] = 0
Source [23] = 0
Source [24] = 0
Source [25] = 0
Source [26] = 0
Source [27] = 0
Source [28] = 0
Source [29] = 0
Source [30] = 0
Source [31] = 0
Source [32] = 0
Source [33] = 0
Source [34] = 0
Source [35] = 0
Source [36] = 0
Source [37] = 0
Source [38] = 1
Source [39] = 0
Source [40] = 0
Source [41] = 0
Source [42] = 0
Source [43] = 0
Source [44] = 0
Source [45] = 0
Source [46] = 0
Source [47] = 0
Source [48] = 0
Source [49] = 0
Source [50] = 0
Source [51] = 0
Source [52] = 0
Source [53] = 0
Source [54] = 0
Source [55] = 0
Source [56] = 0
Source [57] = 0
Source [58] = 1
Source [59] = 0
Source [60] = 0
Source [61] = 0
Source [62] = 0
Source [63] = 0
The distribution of the source packets of size 5 is: 

Source [0] = 0
Source [1] = 1
Source [2] = 3
Source [3] = 4
Source [4] = 3
Source [5] = 4
Source [6] = 6
Source [7] = 2
Source [8] = 0
Source [9] = 1
Source [10] = 1
Source [11] = 0
Source [12] = 0
Source [13] = 0
Source [14] = 0
Source [15] = 0
Source [16] = 0
Source [17] = 1
Source [18] = 0
Source [19] = 0
Source [20] = 0
Source [21] = 2
Source [22] = 1
Source [23] = 1
Source [24] = 0
Source [25] = 1
Source [26] = 0
Source [27] = 0
Source [28] = 0
Source [29] = 1
Source [30] = 0
Source [31] = 0
Source [32] = 1
Source [33] = 0
Source [34] = 0
Source [35] = 0
Source [36] = 0
Source [37] = 0
Source [38] = 2
Source [39] = 0
Source [40] = 3
Source [41] = 2
Source [42] = 0
Source [43] = 0
Source [44] = 1
Source [45] = 1
Source [46] = 0
Source [47] = 0
Source [48] = 1
Source [49] = 1
Source [50] = 0
Source [51] = 3
Source [52] = 1
Source [53] = 0
Source [54] = 3
Source [55] = 0
Source [56] = 0
Source [57] = 2
Source [58] = 0
Source [59] = 1
Source [60] = 0
Source [61] = 0
Source [62] = 0
Source [63] = 0
The distribution of the dest packets of size 1 is: 

dest [0] = 0
dest [1] = 0
dest [2] = 0
dest [3] = 0
dest [4] = 0
dest [5] = 0
dest [6] = 0
dest [7] = 0
dest [8] = 0
dest [9] = 0
dest [10] = 0
dest [11] = 0
dest [12] = 0
dest [13] = 0
dest [14] = 0
dest [15] = 0
dest [16] = 0
dest [17] = 0
dest [18] = 0
dest [19] = 0
dest [20] = 0
dest [21] = 0
dest [22] = 0
dest [23] = 0
dest [24] = 0
dest [25] = 0
dest [26] = 0
dest [27] = 0
dest [28] = 0
dest [29] = 0
dest [30] = 0
dest [31] = 0
dest [32] = 0
dest [33] = 0
dest [34] = 0
dest [35] = 0
dest [36] = 0
dest [37] = 0
dest [38] = 2
dest [39] = 0
dest [40] = 0
dest [41] = 0
dest [42] = 0
dest [43] = 0
dest [44] = 0
dest [45] = 0
dest [46] = 0
dest [47] = 0
dest [48] = 0
dest [49] = 0
dest [50] = 0
dest [51] = 0
dest [52] = 0
dest [53] = 0
dest [54] = 0
dest [55] = 0
dest [56] = 0
dest [57] = 0
dest [58] = 1
dest [59] = 0
dest [60] = 0
dest [61] = 0
dest [62] = 0
dest [63] = 0
The distribution of the dest packets of size 5 is: 

dest [0] = 0
dest [1] = 0
dest [2] = 6
dest [3] = 0
dest [4] = 0
dest [5] = 9
dest [6] = 0
dest [7] = 0
dest [8] = 0
dest [9] = 0
dest [10] = 0
dest [11] = 0
dest [12] = 0
dest [13] = 0
dest [14] = 0
dest [15] = 0
dest [16] = 3
dest [17] = 0
dest [18] = 0
dest [19] = 0
dest [20] = 0
dest [21] = 0
dest [22] = 0
dest [23] = 8
dest [24] = 0
dest [25] = 0
dest [26] = 0
dest [27] = 0
dest [28] = 0
dest [29] = 0
dest [30] = 0
dest [31] = 0
dest [32] = 0
dest [33] = 0
dest [34] = 0
dest [35] = 0
dest [36] = 0
dest [37] = 0
dest [38] = 0
dest [39] = 0
dest [40] = 6
dest [41] = 0
dest [42] = 0
dest [43] = 0
dest [44] = 0
dest [45] = 0
dest [46] = 0
dest [47] = 8
dest [48] = 0
dest [49] = 0
dest [50] = 0
dest [51] = 0
dest [52] = 0
dest [53] = 0
dest [54] = 0
dest [55] = 0
dest [56] = 0
dest [57] = 0
dest [58] = 11
dest [59] = 0
dest [60] = 0
dest [61] = 3
dest [62] = 0
dest [63] = 0Total run time 1024.76
