make: Nothing to be done for 'all'.
Master: Running timer....
Master: Running SRC....
BEGIN Configuration File: ./examples/mesh88_lat_blackscholes
// $Id$

topology = mesh;
k = 8;
n = 2;

// Routing
routing_function = dor;

// Flow control
num_vcs     = 1;
vc_buf_size = 4;
wait_for_tail_credit = 1;

// Router architecture
vc_allocator = islip;
sw_allocator = islip;
alloc_iters  = 1;

credit_delay   = 1;
routing_delay  = 1;
vc_alloc_delay = 1;
sw_alloc_delay = 1;

input_speedup     = 1;
output_speedup    = 1;
internal_speedup  = 1.0;

vc_busy_when_full = 0;

// Traffic
workload=netrace({/home/sarab/Downloads/BookSim_Benchmark_files/x264_64c_simsmall.tra.bz2,100000000,1,2,1,1,0);

// Simulation
sim_type = workload;

END Configuration File: ./examples/mesh88_lat_blackscholes
Warming up...
===== Time: 10000 =====
Class 0:
Packets read from trace = 174 of 31326528 (0%)
Future packets = 1
Waiting packets = 0
Stalled packets = 160
Packets pending injection = 0
Packets in flight = 3
Minimum packet latency = 287
Average packet latency = 1324.3
Maximum packet latency = 4962
Minimum network latency = 283
Average network latency = 1321.7
Maximum network latency = 4958
Slowest packet = 6
Minimum flit latency = 22
Average flit latency = 272.484
Maximum flit latency = 4948
Slowest flit = 34
Minimum fragmentation = 193
Average fragmentation = 1244.7
Maximum fragmentation = 4895
Minimum injected packet rate = 0 (at node 0)
Average injected packet rate = 2.03125e-05
Maximum injected packet rate = 0.0006 (at node 61)
Minimum accepted packet rate = 0 (at node 0)
Average accepted packet rate = 1.5625e-05
Maximum accepted packet rate = 0.0006 (at node 47)
Minimum injected flit rate = 0 (at node 0)
Average injected flit rate = 0.000101562
Maximum injected flit rate = 0.003 (at node 61)
Minimum accepted flit rate = 0 (at node 0)
Average accepted flit rate = 9.6875e-05
Maximum accepted flit rate = 0.003 (at node 47)
Total number of injected packets = 13
Total number of injected flits = 65
Average injected packet length = 5
Total number of accepted packets = 10
Total number of accepted flits = 62
Average accepted packet length = 6.2
Total in-flight flits = 3 (0 measured)
===== Time: 20000 =====
Class 0:
Packets read from trace = 316 of 31326528 (0%)
Future packets = 1
Waiting packets = 0
Stalled packets = 285
Packets pending injection = 1
Packets in flight = 6
Minimum packet latency = 23
Average packet latency = 1609.48
Maximum packet latency = 9516
Minimum network latency = 22
Average network latency = 1607
Maximum network latency = 9516
Slowest packet = 8
Minimum flit latency = 22
Average flit latency = 371.597
Maximum flit latency = 9508
Slowest flit = 44
Minimum fragmentation = 0
Average fragmentation = 1529.7
Maximum fragmentation = 9490
Minimum injected packet rate = 0 (at node 3)
Average injected packet rate = 2.26562e-05
Maximum injected packet rate = 0.00055 (at node 32)
Minimum accepted packet rate = 0 (at node 0)
Average accepted packet rate = 1.79687e-05
Maximum accepted packet rate = 0.00055 (at node 2)
Minimum injected flit rate = 0 (at node 3)
Average injected flit rate = 0.00010625
Maximum injected flit rate = 0.00275 (at node 32)
Minimum accepted flit rate = 0 (at node 0)
Average accepted flit rate = 9.29688e-05
Maximum accepted flit rate = 0.00295 (at node 2)
Total number of injected packets = 29
Total number of injected flits = 136
Average injected packet length = 4.68966
Total number of accepted packets = 23
Total number of accepted flits = 119
Average accepted packet length = 5.17391
Total in-flight flits = 18 (0 measured)
===== Time: 30000 =====
Class 0:
Packets read from trace = 513 of 31326528 (0%)
Future packets = 1
Waiting packets = 0
Stalled packets = 461
Packets pending injection = 10
Packets in flight = 6
Minimum packet latency = 23
Average packet latency = 1353.77
Maximum packet latency = 9516
Minimum network latency = 22
Average network latency = 1351.11
Maximum network latency = 9516
Slowest packet = 8
Minimum flit latency = 22
Average flit latency = 326.575
Maximum flit latency = 9508
Slowest flit = 44
Minimum fragmentation = 0
Average fragmentation = 1271.17
Maximum fragmentation = 9490
Minimum injected packet rate = 0 (at node 3)
Average injected packet rate = 2.13542e-05
Maximum injected packet rate = 0.000766667 (at node 32)
Minimum accepted packet rate = 0 (at node 0)
Average accepted packet rate = 1.82292e-05
Maximum accepted packet rate = 0.000766667 (at node 2)
Minimum injected flit rate = 0 (at node 3)
Average injected flit rate = 0.000102083
Maximum injected flit rate = 0.00383333 (at node 32)
Minimum accepted flit rate = 0 (at node 0)
Average accepted flit rate = 9.32292e-05
Maximum accepted flit rate = 0.00396667 (at node 2)
Total number of injected packets = 41
Total number of injected flits = 196
Average injected packet length = 4.78049
Total number of accepted packets = 35
Total number of accepted flits = 179
Average accepted packet length = 5.11429
Total in-flight flits = 18 (0 measured)
Warmup ends after 30000 cycles.
Beginning measurements...
===== Time: 40000 =====
Class 0:
Packets read from trace = 696 of 31326528 (0%)
Future packets = 1
Waiting packets = 0
Stalled packets = 630
Packets pending injection = 21
Packets in flight = 9
Minimum packet latency = nan
Average packet latency = -nan
Maximum packet latency = -nan
Minimum network latency = nan
Average network latency = -nan
Maximum network latency = -nan
Slowest packet = -1
Minimum flit latency = nan
Average flit latency = -nan
Maximum flit latency = -nan
Slowest flit = -1
Minimum fragmentation = nan
Average fragmentation = -nan
Maximum fragmentation = -nan
Minimum injected packet rate = 0 (at node 0)
Average injected packet rate = 3.125e-06
Maximum injected packet rate = 0.0001 (at node 33)
Minimum accepted packet rate = 0 (at node 0)
Average accepted packet rate = 0
Maximum accepted packet rate = 0 (at node 0)
Minimum injected flit rate = 0 (at node 0)
Average injected flit rate = 1.40625e-05
Maximum injected flit rate = 0.0005 (at node 63)
Minimum accepted flit rate = 0 (at node 0)
Average accepted flit rate = 0
Maximum accepted flit rate = 0 (at node 0)
Total number of injected packets = 2
Total number of injected flits = 9
Average injected packet length = 4.5
Total number of accepted packets = 0
Total number of accepted flits = 0
Average accepted packet length = -nan
Total in-flight flits = 33 (15 measured)
===== Time: 50000 =====
Class 0:
Packets read from trace = 860 of 31326528 (0%)
Future packets = 1
Waiting packets = 0
Stalled packets = 785
Packets pending injection = 28
Packets in flight = 11
Minimum packet latency = nan
Average packet latency = -nan
Maximum packet latency = -nan
Minimum network latency = nan
Average network latency = -nan
Maximum network latency = -nan
Slowest packet = -1
Minimum flit latency = 31302
Average flit latency = 31305
Maximum flit latency = 31306
Slowest flit = 66
Minimum fragmentation = nan
Average fragmentation = -nan
Maximum fragmentation = -nan
Minimum injected packet rate = 0 (at node 0)
Average injected packet rate = 3.125e-06
Maximum injected packet rate = 5e-05 (at node 33)
Minimum accepted packet rate = 0 (at node 0)
Average accepted packet rate = 0
Maximum accepted packet rate = 0 (at node 0)
Minimum injected flit rate = 0 (at node 0)
Average injected flit rate = 1.48437e-05
Maximum injected flit rate = 0.00025 (at node 41)
Minimum accepted flit rate = 0 (at node 0)
Average accepted flit rate = 3.125e-06
Maximum accepted flit rate = 0.0002 (at node 5)
Total number of injected packets = 4
Total number of injected flits = 19
Average injected packet length = 4.75
Total number of accepted packets = 0
Total number of accepted flits = 4
Average accepted packet length = inf
Total in-flight flits = 39 (25 measured)
===== Time: 60000 =====
Class 0:
Packets read from trace = 1036 of 31326528 (0%)
Future packets = 1
Waiting packets = 0
Stalled packets = 939
Packets pending injection = 44
Packets in flight = 15
Minimum packet latency = nan
Average packet latency = -nan
Maximum packet latency = -nan
Minimum network latency = nan
Average network latency = -nan
Maximum network latency = -nan
Slowest packet = -1
Minimum flit latency = 85
Average flit latency = 17660.6
Maximum flit latency = 44485
Slowest flit = 69
Minimum fragmentation = nan
Average fragmentation = -nan
Maximum fragmentation = -nan
Minimum injected packet rate = 0 (at node 0)
Average injected packet rate = 4.16667e-06
Maximum injected packet rate = 6.66667e-05 (at node 33)
Minimum accepted packet rate = 0 (at node 0)
Average accepted packet rate = 1.04167e-06
Maximum accepted packet rate = 3.33333e-05 (at node 2)
Minimum injected flit rate = 0 (at node 0)
Average injected flit rate = 1.97917e-05
Maximum injected flit rate = 0.0003 (at node 33)
Minimum accepted flit rate = 0 (at node 0)
Average accepted flit rate = 7.29167e-06
Maximum accepted flit rate = 0.0003 (at node 5)
Total number of injected packets = 8
Total number of injected flits = 38
Average injected packet length = 4.75
Total number of accepted packets = 2
Total number of accepted flits = 14
Average accepted packet length = 7
Total in-flight flits = 59 (47 measured)
===== Time: 70000 =====
Class 0:
Packets read from trace = 1173 of 31326528 (0%)
Future packets = 1
Waiting packets = 0
Stalled packets = 1061
Packets pending injection = 59
Packets in flight = 15
Minimum packet latency = nan
Average packet latency = -nan
Maximum packet latency = -nan
Minimum network latency = nan
Average network latency = -nan
Maximum network latency = -nan
Slowest packet = -1
Minimum flit latency = 85
Average flit latency = 17660.6
Maximum flit latency = 44485
Slowest flit = 69
Minimum fragmentation = nan
Average fragmentation = -nan
Maximum fragmentation = -nan
Minimum injected packet rate = 0 (at node 0)
Average injected packet rate = 3.125e-06
Maximum injected packet rate = 5e-05 (at node 33)
Minimum accepted packet rate = 0 (at node 0)
Average accepted packet rate = 7.8125e-07
Maximum accepted packet rate = 2.5e-05 (at node 2)
Minimum injected flit rate = 0 (at node 0)
Average injected flit rate = 1.48437e-05
Maximum injected flit rate = 0.000225 (at node 33)
Minimum accepted flit rate = 0 (at node 0)
Average accepted flit rate = 5.46875e-06
Maximum accepted flit rate = 0.000225 (at node 5)
Total number of injected packets = 8
Total number of injected flits = 38
Average injected packet length = 4.75
Total number of accepted packets = 2
Total number of accepted flits = 14
Average accepted packet length = 7
Total in-flight flits = 59 (47 measured)
===== Time: 80000 =====
Class 0:
Packets read from trace = 1247 of 31326528 (0%)
Future packets = 1
Waiting packets = 1
Stalled packets = 1126
Packets pending injection = 67
Packets in flight = 15
Minimum packet latency = nan
Average packet latency = -nan
Maximum packet latency = -nan
Minimum network latency = nan
Average network latency = -nan
Maximum network latency = -nan
Slowest packet = -1
Minimum flit latency = 85
Average flit latency = 17660.6
Maximum flit latency = 44485
Slowest flit = 69
Minimum fragmentation = nan
Average fragmentation = -nan
Maximum fragmentation = -nan
Minimum injected packet rate = 0 (at node 0)
Average injected packet rate = 2.5e-06
Maximum injected packet rate = 4e-05 (at node 33)
Minimum accepted packet rate = 0 (at node 0)
Average accepted packet rate = 6.25e-07
Maximum accepted packet rate = 2e-05 (at node 2)
Minimum injected flit rate = 0 (at node 0)
Average injected flit rate = 1.1875e-05
Maximum injected flit rate = 0.00018 (at node 33)
Minimum accepted flit rate = 0 (at node 0)
Average accepted flit rate = 4.375e-06
Maximum accepted flit rate = 0.00018 (at node 5)
Total number of injected packets = 8
Total number of injected flits = 38
Average injected packet length = 4.75
Total number of accepted packets = 2
Total number of accepted flits = 14
Average accepted packet length = 7
Total in-flight flits = 59 (47 measured)
===== Time: 90000 =====
Class 0:
Packets read from trace = 1472 of 31326528 (0%)
Future packets = 1
Waiting packets = 0
Stalled packets = 1315
Packets pending injection = 99
Packets in flight = 18
Minimum packet latency = 22089
Average packet latency = 22089
Maximum packet latency = 22089
Minimum network latency = 22089
Average network latency = 22089
Maximum network latency = 22089
Slowest packet = 51
Minimum flit latency = 60
Average flit latency = 24877.5
Maximum flit latency = 65499
Slowest flit = 78
Minimum fragmentation = 22000
Average fragmentation = 22000
Maximum fragmentation = 22000
Minimum injected packet rate = 0 (at node 4)
Average injected packet rate = 3.125e-06
Maximum injected packet rate = 5e-05 (at node 2)
Minimum accepted packet rate = 0 (at node 0)
Average accepted packet rate = 1.04167e-06
Maximum accepted packet rate = 3.33333e-05 (at node 2)
Minimum injected flit rate = 0 (at node 4)
Average injected flit rate = 1.51042e-05
Maximum injected flit rate = 0.000233333 (at node 2)
Minimum accepted flit rate = 0 (at node 0)
Average accepted flit rate = 6.25e-06
Maximum accepted flit rate = 0.00015 (at node 5)
Total number of injected packets = 12
Total number of injected flits = 58
Average injected packet length = 4.83333
Total number of accepted packets = 4
Total number of accepted flits = 24
Average accepted packet length = 6
Total in-flight flits = 74 (67 measured)
===== Time: 100000 =====
Class 0:
Packets read from trace = 1693 of 31326528 (0%)
Future packets = 1
Waiting packets = 0
Stalled packets = 1502
Packets pending injection = 130
Packets in flight = 21
Minimum packet latency = 22089
Average packet latency = 22089
Maximum packet latency = 22089
Minimum network latency = 22089
Average network latency = 22089
Maximum network latency = 22089
Slowest packet = 51
Minimum flit latency = 60
Average flit latency = 24877.5
Maximum flit latency = 65499
Slowest flit = 78
Minimum fragmentation = 22000
Average fragmentation = 22000
Maximum fragmentation = 22000
Minimum injected packet rate = 0 (at node 4)
Average injected packet rate = 3.34821e-06
Maximum injected packet rate = 4.28571e-05 (at node 2)
Minimum accepted packet rate = 0 (at node 0)
Average accepted packet rate = 8.92857e-07
Maximum accepted packet rate = 2.85714e-05 (at node 2)
Minimum injected flit rate = 0 (at node 4)
Average injected flit rate = 1.60714e-05
Maximum injected flit rate = 0.0002 (at node 2)
Minimum accepted flit rate = 0 (at node 0)
Average accepted flit rate = 5.35714e-06
Maximum accepted flit rate = 0.000128571 (at node 5)
Total number of injected packets = 15
Total number of injected flits = 72
Average injected packet length = 4.8
Total number of accepted packets = 4
Total number of accepted flits = 24
Average accepted packet length = 6
Total in-flight flits = 89 (82 measured)
===== Time: 110000 =====
Class 0:
Packets read from trace = 1911 of 31326528 (0%)
Future packets = 1
Waiting packets = 0
Stalled packets = 1693
Packets pending injection = 157
Packets in flight = 21
Minimum packet latency = 22089
Average packet latency = 22089
Maximum packet latency = 22089
Minimum network latency = 22089
Average network latency = 22089
Maximum network latency = 22089
Slowest packet = 51
Minimum flit latency = 60
Average flit latency = 24877.5
Maximum flit latency = 65499
Slowest flit = 78
Minimum fragmentation = 22000
Average fragmentation = 22000
Maximum fragmentation = 22000
Minimum injected packet rate = 0 (at node 4)
Average injected packet rate = 2.92969e-06
Maximum injected packet rate = 3.75e-05 (at node 2)
Minimum accepted packet rate = 0 (at node 0)
Average accepted packet rate = 7.8125e-07
Maximum accepted packet rate = 2.5e-05 (at node 2)
Minimum injected flit rate = 0 (at node 4)
Average injected flit rate = 1.40625e-05
Maximum injected flit rate = 0.000175 (at node 2)
Minimum accepted flit rate = 0 (at node 0)
Average accepted flit rate = 4.6875e-06
Maximum accepted flit rate = 0.0001125 (at node 5)
Total number of injected packets = 15
Total number of injected flits = 72
Average injected packet length = 4.8
Total number of accepted packets = 4
Total number of accepted flits = 24
Average accepted packet length = 6
Total in-flight flits = 89 (82 measured)
===== Time: 120000 =====
Class 0:
Packets read from trace = 2079 of 31326528 (0%)
Future packets = 1
Waiting packets = 0
Stalled packets = 1835
Packets pending injection = 183
Packets in flight = 21
Minimum packet latency = 22089
Average packet latency = 22089
Maximum packet latency = 22089
Minimum network latency = 22089
Average network latency = 22089
Maximum network latency = 22089
Slowest packet = 51
Minimum flit latency = 60
Average flit latency = 24877.5
Maximum flit latency = 65499
Slowest flit = 78
Minimum fragmentation = 22000
Average fragmentation = 22000
Maximum fragmentation = 22000
Minimum injected packet rate = 0 (at node 4)
Average injected packet rate = 2.60417e-06
Maximum injected packet rate = 3.33333e-05 (at node 2)
Minimum accepted packet rate = 0 (at node 0)
Average accepted packet rate = 6.94444e-07
Maximum accepted packet rate = 2.22222e-05 (at node 2)
Minimum injected flit rate = 0 (at node 4)
Average injected flit rate = 1.25e-05
Maximum injected flit rate = 0.000155556 (at node 2)
Minimum accepted flit rate = 0 (at node 0)
Average accepted flit rate = 4.16667e-06
Maximum accepted flit rate = 0.0001 (at node 5)
Total number of injected packets = 15
Total number of injected flits = 72
Average injected packet length = 4.8
Total number of accepted packets = 4
Total number of accepted flits = 24
Average accepted packet length = 6
Total in-flight flits = 89 (82 measured)
===== Time: 130000 =====
Class 0:
Packets read from trace = 2170 of 31326528 (0%)
Future packets = 1
Waiting packets = 0
Stalled packets = 1923
Packets pending injection = 186
Packets in flight = 21
Minimum packet latency = 22089
Average packet latency = 22089
Maximum packet latency = 22089
Minimum network latency = 22089
Average network latency = 22089
Maximum network latency = 22089
Slowest packet = 51
Minimum flit latency = 60
Average flit latency = 24877.5
Maximum flit latency = 65499
Slowest flit = 78
Minimum fragmentation = 22000
Average fragmentation = 22000
Maximum fragmentation = 22000
Minimum injected packet rate = 0 (at node 4)
Average injected packet rate = 2.34375e-06
Maximum injected packet rate = 3e-05 (at node 2)
Minimum accepted packet rate = 0 (at node 0)
Average accepted packet rate = 6.25e-07
Maximum accepted packet rate = 2e-05 (at node 2)
Minimum injected flit rate = 0 (at node 4)
Average injected flit rate = 1.125e-05
Maximum injected flit rate = 0.00014 (at node 2)
Minimum accepted flit rate = 0 (at node 0)
Average accepted flit rate = 3.75e-06
Maximum accepted flit rate = 9e-05 (at node 5)
Total number of injected packets = 15
Total number of injected flits = 72
Average injected packet length = 4.8
Total number of accepted packets = 4
Total number of accepted flits = 24
Average accepted packet length = 6
Total in-flight flits = 89 (82 measured)
Completed measurements after 130000 cycles.
Draining remaining packets ...
Class 0:
Remaining flits: 64 71 102 103 104 105 106 197 198 199 [...] (88 flits)
Measured flits: 197 198 199 200 201 202 203 204 205 206 [...] (81 flits)
Class 0:
Remaining flits: 64 71 102 103 104 105 106 197 198 199 [...] (88 flits)
Measured flits: 197 198 199 200 201 202 203 204 205 206 [...] (81 flits)
Class 0:
Remaining flits: 64 71 102 103 104 105 106 197 198 199 [...] (88 flits)
Measured flits: 197 198 199 200 201 202 203 204 205 206 [...] (81 flits)
Class 0:
Remaining flits: 64 71 102 103 104 105 106 197 198 199 [...] (84 flits)
Measured flits: 197 198 199 200 201 202 203 204 205 206 [...] (77 flits)
Class 0:
Remaining flits: 64 71 102 103 104 105 106 197 198 199 [...] (82 flits)
Measured flits: 197 198 199 200 201 202 203 204 205 206 [...] (75 flits)
Class 0:
Remaining flits: 64 102 103 104 105 106 197 198 199 200 [...] (81 flits)
Measured flits: 197 198 199 200 201 202 203 204 205 206 [...] (75 flits)
Class 0:
Remaining flits: 64 102 103 104 105 106 197 198 199 200 [...] (79 flits)
Measured flits: 197 198 199 200 201 202 203 204 205 206 [...] (73 flits)
Class 0:
Remaining flits: 64 102 103 104 105 106 197 198 199 200 [...] (71 flits)
Measured flits: 197 198 199 200 201 202 203 204 205 206 [...] (65 flits)
Class 0:
Remaining flits: 64 102 103 104 105 106 197 198 199 200 [...] (67 flits)
Measured flits: 197 198 199 200 201 202 203 204 205 206 [...] (61 flits)
Class 0:
Remaining flits: 64 102 103 104 105 106 197 198 199 200 [...] (65 flits)
Measured flits: 197 198 199 200 201 202 203 204 205 206 [...] (59 flits)
Class 0:
Remaining flits: 64 102 103 104 105 106 197 198 199 200 [...] (56 flits)
Measured flits: 197 198 199 200 201 202 203 204 205 206 [...] (50 flits)
Class 0:
Remaining flits: 64 102 103 104 105 106 197 198 199 200 [...] (53 flits)
Measured flits: 197 198 199 200 201 202 203 204 205 206 [...] (47 flits)
Class 0:
Remaining flits: 64 102 103 104 105 106 197 198 199 200 [...] (45 flits)
Measured flits: 197 198 199 200 201 202 203 204 205 206 [...] (39 flits)
Class 0:
Remaining flits: 64 102 103 104 105 106 197 198 199 200 [...] (41 flits)
Measured flits: 197 198 199 200 201 202 203 204 205 206 [...] (35 flits)
Class 0:
Remaining flits: 64 102 103 104 105 106 197 198 199 200 [...] (40 flits)
Measured flits: 197 198 199 200 201 202 203 204 205 206 [...] (34 flits)
Class 0:
Remaining flits: 64 102 103 104 105 106 197 198 199 200 [...] (36 flits)
Measured flits: 197 198 199 200 201 202 203 204 205 206 [...] (30 flits)
Class 0:
Remaining flits: 64 102 103 104 105 106 197 198 199 200 [...] (28 flits)
Measured flits: 197 198 199 200 201 202 203 204 205 206 [...] (22 flits)
Class 0:
Remaining flits: 64 102 103 104 105 106 197 198 199 200 [...] (26 flits)
Measured flits: 197 198 199 200 201 202 203 204 205 206 [...] (20 flits)
Class 0:
Remaining flits: 64 102 103 104 105 106 197 198 199 200 [...] (22 flits)
Measured flits: 197 198 199 200 201 202 203 204 205 206 [...] (16 flits)
Class 0:
Remaining flits: 64 102 103 104 105 106 197 198 199 200 [...] (21 flits)
Measured flits: 197 198 199 200 201 202 203 204 205 206 [...] (15 flits)
Class 0:
Remaining flits: 64 102 103 104 105 106 197 198 199 200 [...] (21 flits)
Measured flits: 197 198 199 200 201 202 203 204 205 206 [...] (15 flits)
Class 0:
Remaining flits: 64 102 103 104 105 106 197 198 199 200 [...] (21 flits)
Measured flits: 197 198 199 200 201 202 203 204 205 206 [...] (15 flits)
Class 0:
Remaining flits: 64 102 103 104 105 106 197 198 199 200 [...] (21 flits)
Measured flits: 197 198 199 200 201 202 203 204 205 206 [...] (15 flits)
Class 0:
Remaining flits: 64 102 103 104 105 106 197 198 199 200 [...] (21 flits)
Measured flits: 197 198 199 200 201 202 203 204 205 206 [...] (15 flits)
Class 0:
Remaining flits: 64 102 103 104 105 106 197 198 199 200 [...] (21 flits)
Measured flits: 197 198 199 200 201 202 203 204 205 206 [...] (15 flits)
Class 0:
Remaining flits: 64 102 103 104 105 106 197 198 199 200 [...] (21 flits)
Measured flits: 197 198 199 200 201 202 203 204 205 206 [...] (15 flits)
Class 0:
Remaining flits: 64 102 103 104 105 106 197 198 199 200 [...] (21 flits)
Measured flits: 197 198 199 200 201 202 203 204 205 206 [...] (15 flits)
Class 0:
Remaining flits: 64 102 103 104 105 106 197 198 199 200 [...] (21 flits)
Measured flits: 197 198 199 200 201 202 203 204 205 206 [...] (15 flits)
Class 0:
Remaining flits: 64 102 103 104 105 106 197 198 199 200 [...] (21 flits)
Measured flits: 197 198 199 200 201 202 203 204 205 206 [...] (15 flits)
Class 0:
Remaining flits: 64 102 103 104 105 106 197 198 199 200 [...] (21 flits)
Measured flits: 197 198 199 200 201 202 203 204 205 206 [...] (15 flits)
Class 0:
Remaining flits: 64 102 103 104 105 106 197 198 199 200 [...] (21 flits)
Measured flits: 197 198 199 200 201 202 203 204 205 206 [...] (15 flits)
Class 0:
Remaining flits: 64 102 103 104 105 106 197 198 199 200 [...] (21 flits)
Measured flits: 197 198 199 200 201 202 203 204 205 206 [...] (15 flits)
Class 0:
Remaining flits: 64 102 103 104 105 106 197 198 199 200 [...] (21 flits)
Measured flits: 197 198 199 200 201 202 203 204 205 206 [...] (15 flits)
Class 0:
Remaining flits: 64 102 103 104 105 106 197 198 199 200 [...] (21 flits)
Measured flits: 197 198 199 200 201 202 203 204 205 206 [...] (15 flits)
Class 0:
Remaining flits: 64 102 103 104 105 106 197 198 199 200 [...] (21 flits)
Measured flits: 197 198 199 200 201 202 203 204 205 206 [...] (15 flits)
Class 0:
Remaining flits: 64 102 103 104 105 106 197 198 199 200 [...] (21 flits)
Measured flits: 197 198 199 200 201 202 203 204 205 206 [...] (15 flits)
Class 0:
Remaining flits: 64 102 103 104 105 106 197 198 199 200 [...] (21 flits)
Measured flits: 197 198 199 200 201 202 203 204 205 206 [...] (15 flits)
Class 0:
Remaining flits: 64 102 103 104 105 106 197 198 199 200 [...] (21 flits)
Measured flits: 197 198 199 200 201 202 203 204 205 206 [...] (15 flits)
Class 0:
Remaining flits: 64 102 103 104 105 106 197 198 199 200 [...] (21 flits)
Measured flits: 197 198 199 200 201 202 203 204 205 206 [...] (15 flits)
Class 0:
Remaining flits: 64 102 103 104 105 106 197 198 199 200 [...] (21 flits)
Measured flits: 197 198 199 200 201 202 203 204 205 206 [...] (15 flits)
Class 0:
Remaining flits: 64 102 103 104 105 106 197 198 199 200 [...] (21 flits)
Measured flits: 197 198 199 200 201 202 203 204 205 206 [...] (15 flits)
Class 0:
Remaining flits: 64 102 103 104 105 106 197 198 199 200 [...] (21 flits)
Measured flits: 197 198 199 200 201 202 203 204 205 206 [...] (15 flits)
Class 0:
Remaining flits: 64 102 103 104 105 106 197 198 199 200 [...] (21 flits)
Measured flits: 197 198 199 200 201 202 203 204 205 206 [...] (15 flits)
Class 0:
Remaining flits: 64 102 103 104 105 106 197 198 199 200 [...] (21 flits)
Measured flits: 197 198 199 200 201 202 203 204 205 206 [...] (15 flits)
Class 0:
Remaining flits: 64 102 103 104 105 106 197 198 199 200 [...] (21 flits)
Measured flits: 197 198 199 200 201 202 203 204 205 206 [...] (15 flits)
Class 0:
Remaining flits: 64 102 103 104 105 106 197 198 199 200 [...] (21 flits)
Measured flits: 197 198 199 200 201 202 203 204 205 206 [...] (15 flits)
Class 0:
Remaining flits: 64 102 103 104 105 106 197 198 199 200 [...] (21 flits)
Measured flits: 197 198 199 200 201 202 203 204 205 206 [...] (15 flits)
Class 0:
Remaining flits: 64 102 103 104 105 106 197 198 199 200 [...] (21 flits)
Measured flits: 197 198 199 200 201 202 203 204 205 206 [...] (15 flits)
Class 0:
Remaining flits: 64 102 103 104 105 106 197 198 199 200 [...] (21 flits)
Measured flits: 197 198 199 200 201 202 203 204 205 206 [...] (15 flits)
Class 0:
Remaining flits: 64 102 103 104 105 106 197 198 199 200 [...] (21 flits)
Measured flits: 197 198 199 200 201 202 203 204 205 206 [...] (15 flits)
Class 0:
Remaining flits: 64 102 103 104 105 106 197 198 199 200 [...] (21 flits)
Measured flits: 197 198 199 200 201 202 203 204 205 206 [...] (15 flits)
Class 0:
Remaining flits: 64 102 103 104 105 106 197 198 199 200 [...] (21 flits)
Measured flits: 197 198 199 200 201 202 203 204 205 206 [...] (15 flits)
Class 0:
Remaining flits: 64 102 103 104 105 106 197 198 199 200 [...] (21 flits)
Measured flits: 197 198 199 200 201 202 203 204 205 206 [...] (15 flits)
Class 0:
Remaining flits: 64 102 103 104 105 106 197 198 199 200 [...] (21 flits)
Measured flits: 197 198 199 200 201 202 203 204 205 206 [...] (15 flits)
Class 0:
Remaining flits: 64 102 103 104 105 106 197 198 199 200 [...] (21 flits)
Measured flits: 197 198 199 200 201 202 203 204 205 206 [...] (15 flits)
Class 0:
Remaining flits: 64 102 103 104 105 106 197 198 199 200 [...] (21 flits)
Measured flits: 197 198 199 200 201 202 203 204 205 206 [...] (15 flits)
Class 0:
Remaining flits: 64 102 103 104 105 106 197 198 199 200 [...] (21 flits)
Measured flits: 197 198 199 200 201 202 203 204 205 206 [...] (15 flits)
Class 0:
Remaining flits: 64 102 103 104 105 106 197 198 199 200 [...] (21 flits)
Measured flits: 197 198 199 200 201 202 203 204 205 206 [...] (15 flits)
Class 0:
Remaining flits: 64 102 103 104 105 106 197 198 199 200 [...] (21 flits)
Measured flits: 197 198 199 200 201 202 203 204 205 206 [...] (15 flits)
Class 0:
Remaining flits: 64 102 103 104 105 106 197 198 199 200 [...] (21 flits)
Measured flits: 197 198 199 200 201 202 203 204 205 206 [...] (15 flits)
Class 0:
Remaining flits: 64 102 103 104 105 106 197 198 199 200 [...] (21 flits)
Measured flits: 197 198 199 200 201 202 203 204 205 206 [...] (15 flits)
Class 0:
Remaining flits: 64 102 103 104 105 106 197 198 199 200 [...] (21 flits)
Measured flits: 197 198 199 200 201 202 203 204 205 206 [...] (15 flits)
Class 0:
Remaining flits: 64 102 103 104 105 106 197 198 199 200 [...] (21 flits)
Measured flits: 197 198 199 200 201 202 203 204 205 206 [...] (15 flits)
Class 0:
Remaining flits: 64 102 103 104 105 106 197 198 199 200 [...] (21 flits)
Measured flits: 197 198 199 200 201 202 203 204 205 206 [...] (15 flits)
Class 0:
Remaining flits: 64 102 103 104 105 106 197 198 199 200 [...] (21 flits)
Measured flits: 197 198 199 200 201 202 203 204 205 206 [...] (15 flits)
Class 0:
Remaining flits: 64 102 103 104 105 106 197 198 199 200 [...] (21 flits)
Measured flits: 197 198 199 200 201 202 203 204 205 206 [...] (15 flits)
Class 0:
Remaining flits: 64 102 103 104 105 106 197 198 199 200 [...] (21 flits)
Measured flits: 197 198 199 200 201 202 203 204 205 206 [...] (15 flits)
Class 0:
Remaining flits: 64 102 103 104 105 106 197 198 199 200 [...] (21 flits)
Measured flits: 197 198 199 200 201 202 203 204 205 206 [...] (15 flits)
Class 0:
Remaining flits: 64 102 103 104 105 106 197 198 199 200 [...] (21 flits)
Measured flits: 197 198 199 200 201 202 203 204 205 206 [...] (15 flits)
Class 0:
Remaining flits: 64 102 103 104 105 106 197 198 199 200 [...] (21 flits)
Measured flits: 197 198 199 200 201 202 203 204 205 206 [...] (15 flits)
Class 0:
Remaining flits: 64 102 103 104 105 106 197 198 199 200 [...] (21 flits)
Measured flits: 197 198 199 200 201 202 203 204 205 206 [...] (15 flits)
Class 0:
Remaining flits: 64 102 103 104 105 106 197 198 199 200 [...] (21 flits)
Measured flits: 197 198 199 200 201 202 203 204 205 206 [...] (15 flits)
Class 0:
Remaining flits: 64 102 103 104 105 106 197 198 199 200 [...] (21 flits)
Measured flits: 197 198 199 200 201 202 203 204 205 206 [...] (15 flits)
Class 0:
Remaining flits: 64 102 103 104 105 106 197 198 199 200 [...] (21 flits)
Measured flits: 197 198 199 200 201 202 203 204 205 206 [...] (15 flits)
Class 0:
Remaining flits: 64 102 103 104 105 106 197 198 199 200 [...] (21 flits)
Measured flits: 197 198 199 200 201 202 203 204 205 206 [...] (15 flits)
Class 0:
Remaining flits: 64 102 103 104 105 106 197 198 199 200 [...] (21 flits)
Measured flits: 197 198 199 200 201 202 203 204 205 206 [...] (15 flits)
Class 0:
Remaining flits: 64 102 103 104 105 106 197 198 199 200 [...] (21 flits)
Measured flits: 197 198 199 200 201 202 203 204 205 206 [...] (15 flits)
Class 0:
Remaining flits: 64 102 103 104 105 106 197 198 199 200 [...] (21 flits)
Measured flits: 197 198 199 200 201 202 203 204 205 206 [...] (15 flits)
Class 0:
Remaining flits: 64 102 103 104 105 106 197 198 199 200 [...] (21 flits)
Measured flits: 197 198 199 200 201 202 203 204 205 206 [...] (15 flits)
Class 0:
Remaining flits: 64 102 103 104 105 106 197 198 199 200 [...] (21 flits)
Measured flits: 197 198 199 200 201 202 203 204 205 206 [...] (15 flits)
Class 0:
Remaining flits: 64 102 103 104 105 106 197 198 199 200 [...] (21 flits)
Measured flits: 197 198 199 200 201 202 203 204 205 206 [...] (15 flits)
Class 0:
Remaining flits: 64 102 103 104 105 106 197 198 199 200 [...] (21 flits)
Measured flits: 197 198 199 200 201 202 203 204 205 206 [...] (15 flits)
Class 0:
Remaining flits: 64 102 103 104 105 106 197 198 199 200 [...] (21 flits)
Measured flits: 197 198 199 200 201 202 203 204 205 206 [...] (15 flits)
Class 0:
Remaining flits: 64 102 103 104 105 106 197 198 199 200 [...] (21 flits)
Measured flits: 197 198 199 200 201 202 203 204 205 206 [...] (15 flits)
Class 0:
Remaining flits: 64 102 103 104 105 106 197 198 199 200 [...] (21 flits)
Measured flits: 197 198 199 200 201 202 203 204 205 206 [...] (15 flits)
Class 0:
Remaining flits: 64 102 103 104 105 106 197 198 199 200 [...] (21 flits)
Measured flits: 197 198 199 200 201 202 203 204 205 206 [...] (15 flits)
Class 0:
Remaining flits: 64 102 103 104 105 106 197 198 199 200 [...] (21 flits)
Measured flits: 197 198 199 200 201 202 203 204 205 206 [...] (15 flits)
Class 0:
Remaining flits: 64 102 103 104 105 106 197 198 199 200 [...] (21 flits)
Measured flits: 197 198 199 200 201 202 203 204 205 206 [...] (15 flits)
Class 0:
Remaining flits: 64 102 103 104 105 106 197 198 199 200 [...] (21 flits)
Measured flits: 197 198 199 200 201 202 203 204 205 206 [...] (15 flits)
Class 0:
Remaining flits: 64 102 103 104 105 106 197 198 199 200 [...] (21 flits)
Measured flits: 197 198 199 200 201 202 203 204 205 206 [...] (15 flits)
Class 0:
Remaining flits: 64 102 103 104 105 106 197 198 199 200 [...] (21 flits)
Measured flits: 197 198 199 200 201 202 203 204 205 206 [...] (15 flits)
Class 0:
Remaining flits: 64 102 103 104 105 106 197 198 199 200 [...] (21 flits)
Measured flits: 197 198 199 200 201 202 203 204 205 206 [...] (15 flits)
Class 0:
Remaining flits: 64 102 103 104 105 106 197 198 199 200 [...] (21 flits)
Measured flits: 197 198 199 200 201 202 203 204 205 206 [...] (15 flits)
Class 0:
Remaining flits: 64 102 103 104 105 106 197 198 199 200 [...] (21 flits)
Measured flits: 197 198 199 200 201 202 203 204 205 206 [...] (15 flits)
Class 0:
Remaining flits: 64 102 103 104 105 106 197 198 199 200 [...] (21 flits)
Measured flits: 197 198 199 200 201 202 203 204 205 206 [...] (15 flits)
Class 0:
Remaining flits: 64 102 103 104 105 106 197 198 199 200 [...] (21 flits)
Measured flits: 197 198 199 200 201 202 203 204 205 206 [...] (15 flits)
Class 0:
Remaining flits: 64 102 103 104 105 106 197 198 199 200 [...] (21 flits)
Measured flits: 197 198 199 200 201 202 203 204 205 206 [...] (15 flits)
Class 0:
Remaining flits: 64 102 103 104 105 106 197 198 199 200 [...] (21 flits)
Measured flits: 197 198 199 200 201 202 203 204 205 206 [...] (15 flits)
Class 0:
Remaining flits: 64 102 103 104 105 106 197 198 199 200 [...] (21 flits)
Measured flits: 197 198 199 200 201 202 203 204 205 206 [...] (15 flits)
Class 0:
Remaining flits: 64 102 103 104 105 106 197 198 199 200 [...] (21 flits)
Measured flits: 197 198 199 200 201 202 203 204 205 206 [...] (15 flits)
Class 0:
Remaining flits: 64 102 103 104 105 106 197 198 199 200 [...] (21 flits)
Measured flits: 197 198 199 200 201 202 203 204 205 206 [...] (15 flits)
Time taken is 131000 cycles
====== Traffic class 0 ======

Total number of flits generated = 292, changed lanes = 0
Overall minimum packet latency = 22089 (1 samples)
Overall average packet latency = 65757 (1 samples)
Overall maximum packet latency = 97721 (1 samples)
Overall minimum network latency = 78 (1 samples)
Overall average network latency = 48592 (1 samples)
Overall maximum network latency = 97721 (1 samples)
Overall minimum flit latency = 58 (1 samples)
Overall average flit latency = 40700.5 (1 samples)
Overall maximum flit latency = 116523 (1 samples)
Overall minimum fragmentation = 3 (1 samples)
Overall average fragmentation = 9000 (1 samples)
Overall maximum fragmentation = 72036 (1 samples)
Overall minimum injected packet rate = 0 (1 samples)
Overall average injected packet rate = 2.34375e-06 (1 samples)
Overall maximum injected packet rate = 3e-05 (1 samples)
Overall minimum accepted packet rate = 0 (1 samples)
Overall average accepted packet rate = 6.25e-07 (1 samples)
Overall maximum accepted packet rate = 2e-05 (1 samples)
Overall minimum injected flit rate = 0 (1 samples)
Overall average injected flit rate = 1.125e-05 (1 samples)
Overall maximum injected flit rate = 0.00014 (1 samples)
Overall minimum accepted flit rate = 0 (1 samples)
Overall average accepted flit rate = 3.75e-06 (1 samples)
Overall maximum accepted flit rate = 9e-05 (1 samples)
Overall average injected packet size = 4.8 (1 samples)
Overall average accepted packet size = 6 (1 samples)
Overall average hops = 6.625 (1 samples)
Overall throughput of the network (flits/cycle) = 0.00271
Overall throughput of the network (packets/cycle) = 0.00055
Overall workload runtime = 100000 (1 samples)

The distribution of the source packets of size 1 is: 

Source [0] = 0
Source [1] = 1
Source [2] = 1
Source [3] = 0
Source [4] = 0
Source [5] = 0
Source [6] = 0
Source [7] = 0
Source [8] = 0
Source [9] = 0
Source [10] = 0
Source [11] = 0
Source [12] = 0
Source [13] = 0
Source [14] = 0
Source [15] = 0
Source [16] = 0
Source [17] = 0
Source [18] = 0
Source [19] = 0
Source [20] = 0
Source [21] = 0
Source [22] = 0
Source [23] = 0
Source [24] = 0
Source [25] = 0
Source [26] = 0
Source [27] = 0
Source [28] = 0
Source [29] = 0
Source [30] = 0
Source [31] = 0
Source [32] = 0
Source [33] = 0
Source [34] = 0
Source [35] = 0
Source [36] = 0
Source [37] = 0
Source [38] = 0
Source [39] = 0
Source [40] = 0
Source [41] = 0
Source [42] = 0
Source [43] = 0
Source [44] = 0
Source [45] = 0
Source [46] = 0
Source [47] = 0
Source [48] = 0
Source [49] = 0
Source [50] = 0
Source [51] = 0
Source [52] = 0
Source [53] = 0
Source [54] = 0
Source [55] = 0
Source [56] = 0
Source [57] = 0
Source [58] = 0
Source [59] = 0
Source [60] = 0
Source [61] = 0
Source [62] = 0
Source [63] = 0
The distribution of the source packets of size 5 is: 

Source [0] = 3
Source [1] = 4
Source [2] = 3
Source [3] = 3
Source [4] = 0
Source [5] = 1
Source [6] = 0
Source [7] = 0
Source [8] = 0
Source [9] = 0
Source [10] = 0
Source [11] = 0
Source [12] = 0
Source [13] = 0
Source [14] = 0
Source [15] = 0
Source [16] = 0
Source [17] = 0
Source [18] = 0
Source [19] = 0
Source [20] = 0
Source [21] = 0
Source [22] = 0
Source [23] = 0
Source [24] = 0
Source [25] = 0
Source [26] = 0
Source [27] = 0
Source [28] = 0
Source [29] = 0
Source [30] = 0
Source [31] = 0
Source [32] = 25
Source [33] = 6
Source [34] = 0
Source [35] = 0
Source [36] = 0
Source [37] = 0
Source [38] = 0
Source [39] = 0
Source [40] = 0
Source [41] = 1
Source [42] = 0
Source [43] = 0
Source [44] = 0
Source [45] = 0
Source [46] = 1
Source [47] = 0
Source [48] = 0
Source [49] = 0
Source [50] = 0
Source [51] = 0
Source [52] = 0
Source [53] = 0
Source [54] = 0
Source [55] = 0
Source [56] = 0
Source [57] = 1
Source [58] = 0
Source [59] = 0
Source [60] = 0
Source [61] = 6
Source [62] = 2
Source [63] = 2
The distribution of the dest packets of size 1 is: 

dest [0] = 0
dest [1] = 1
dest [2] = 0
dest [3] = 0
dest [4] = 0
dest [5] = 1
dest [6] = 0
dest [7] = 0
dest [8] = 0
dest [9] = 0
dest [10] = 0
dest [11] = 0
dest [12] = 0
dest [13] = 0
dest [14] = 0
dest [15] = 0
dest [16] = 0
dest [17] = 0
dest [18] = 0
dest [19] = 0
dest [20] = 0
dest [21] = 0
dest [22] = 0
dest [23] = 0
dest [24] = 0
dest [25] = 0
dest [26] = 0
dest [27] = 0
dest [28] = 0
dest [29] = 0
dest [30] = 0
dest [31] = 0
dest [32] = 0
dest [33] = 0
dest [34] = 0
dest [35] = 0
dest [36] = 0
dest [37] = 0
dest [38] = 0
dest [39] = 0
dest [40] = 0
dest [41] = 0
dest [42] = 0
dest [43] = 0
dest [44] = 0
dest [45] = 0
dest [46] = 0
dest [47] = 0
dest [48] = 0
dest [49] = 0
dest [50] = 0
dest [51] = 0
dest [52] = 0
dest [53] = 0
dest [54] = 0
dest [55] = 0
dest [56] = 0
dest [57] = 0
dest [58] = 0
dest [59] = 0
dest [60] = 0
dest [61] = 0
dest [62] = 0
dest [63] = 0
The distribution of the dest packets of size 5 is: 

dest [0] = 0
dest [1] = 1
dest [2] = 29
dest [3] = 0
dest [4] = 0
dest [5] = 11
dest [6] = 0
dest [7] = 0
dest [8] = 0
dest [9] = 0
dest [10] = 0
dest [11] = 0
dest [12] = 0
dest [13] = 0
dest [14] = 0
dest [15] = 0
dest [16] = 3
dest [17] = 0
dest [18] = 0
dest [19] = 0
dest [20] = 0
dest [21] = 0
dest [22] = 0
dest [23] = 3
dest [24] = 0
dest [25] = 0
dest [26] = 0
dest [27] = 0
dest [28] = 0
dest [29] = 0
dest [30] = 0
dest [31] = 0
dest [32] = 0
dest [33] = 0
dest [34] = 0
dest [35] = 0
dest [36] = 0
dest [37] = 0
dest [38] = 0
dest [39] = 0
dest [40] = 0
dest [41] = 0
dest [42] = 0
dest [43] = 0
dest [44] = 0
dest [45] = 0
dest [46] = 0
dest [47] = 6
dest [48] = 0
dest [49] = 0
dest [50] = 0
dest [51] = 0
dest [52] = 0
dest [53] = 0
dest [54] = 0
dest [55] = 0
dest [56] = 0
dest [57] = 0
dest [58] = 3
dest [59] = 0
dest [60] = 0
dest [61] = 2
dest [62] = 0
dest [63] = 0Total run time 240.596
