make: Nothing to be done for 'all'.
Master: Running timer....
Master: Running SRC....
BEGIN Configuration File: ./examples/mesh88_lat_blackscholes
// $Id$

topology = mesh;
k = 8;
n = 2;

// Routing
routing_function = dor;

// Flow control
num_vcs     = 1;
vc_buf_size = 4;
wait_for_tail_credit = 1;

// Router architecture
vc_allocator = islip;
sw_allocator = islip;
alloc_iters  = 1;

credit_delay   = 1;
routing_delay  = 1;
vc_alloc_delay = 1;
sw_alloc_delay = 1;

input_speedup     = 1;
output_speedup    = 1;
internal_speedup  = 1.0;

vc_busy_when_full = 0;

// Traffic
workload=netrace({/home/sarab/Downloads/BookSim_Benchmark_files/blackscholes_64c_simmedium.tra.bz2,100000000,1,2,1,1,0);

// Simulation
sim_type = workload;

END Configuration File: ./examples/mesh88_lat_blackscholes
Warming up...
===== Time: 10000 =====
Class 0:
Packets read from trace = 242 of 16982735 (0%)
Future packets = 1
Waiting packets = 0
Stalled packets = 229
Packets pending injection = 1
Packets in flight = 8
Minimum packet latency = 73
Average packet latency = 1535.67
Maximum packet latency = 3544
Minimum network latency = 73
Average network latency = 1535.67
Maximum network latency = 3544
Slowest packet = 3
Minimum flit latency = 73
Average flit latency = 888.957
Maximum flit latency = 3534
Slowest flit = 15
Minimum fragmentation = 0
Average fragmentation = 599.667
Maximum fragmentation = 902
Minimum injected packet rate = 0 (at node 0)
Average injected packet rate = 1.71875e-05
Maximum injected packet rate = 0.0002 (at node 31)
Minimum accepted packet rate = 0 (at node 0)
Average accepted packet rate = 4.6875e-06
Maximum accepted packet rate = 0.0001 (at node 5)
Minimum injected flit rate = 0 (at node 0)
Average injected flit rate = 7.5e-05
Maximum injected flit rate = 0.001 (at node 33)
Minimum accepted flit rate = 0 (at node 0)
Average accepted flit rate = 3.59375e-05
Maximum accepted flit rate = 0.0009 (at node 23)
Total number of injected packets = 11
Total number of injected flits = 48
Average injected packet length = 4.36364
Total number of accepted packets = 3
Total number of accepted flits = 23
Average accepted packet length = 7.66667
Total in-flight flits = 28 (0 measured)
===== Time: 20000 =====
Class 0:
Packets read from trace = 473 of 16982735 (0%)
Future packets = 1
Waiting packets = 1
Stalled packets = 455
Packets pending injection = 3
Packets in flight = 10
Minimum packet latency = 73
Average packet latency = 1535.67
Maximum packet latency = 3544
Minimum network latency = 73
Average network latency = 1535.67
Maximum network latency = 3544
Slowest packet = 3
Minimum flit latency = 73
Average flit latency = 888.957
Maximum flit latency = 3534
Slowest flit = 15
Minimum fragmentation = 0
Average fragmentation = 599.667
Maximum fragmentation = 902
Minimum injected packet rate = 0 (at node 0)
Average injected packet rate = 9.375e-06
Maximum injected packet rate = 0.0001 (at node 31)
Minimum accepted packet rate = 0 (at node 0)
Average accepted packet rate = 2.34375e-06
Maximum accepted packet rate = 5e-05 (at node 5)
Minimum injected flit rate = 0 (at node 0)
Average injected flit rate = 4.14063e-05
Maximum injected flit rate = 0.0005 (at node 33)
Minimum accepted flit rate = 0 (at node 0)
Average accepted flit rate = 1.79687e-05
Maximum accepted flit rate = 0.00045 (at node 23)
Total number of injected packets = 12
Total number of injected flits = 53
Average injected packet length = 4.41667
Total number of accepted packets = 3
Total number of accepted flits = 23
Average accepted packet length = 7.66667
Total in-flight flits = 38 (0 measured)
===== Time: 30000 =====
Class 0:
Packets read from trace = 704 of 16982735 (0%)
Future packets = 1
Waiting packets = 0
Stalled packets = 680
Packets pending injection = 7
Packets in flight = 10
Minimum packet latency = 73
Average packet latency = 9772.83
Maximum packet latency = 19101
Minimum network latency = 73
Average network latency = 9772.33
Maximum network latency = 19098
Slowest packet = 8
Minimum flit latency = 73
Average flit latency = 4940
Maximum flit latency = 19088
Slowest flit = 40
Minimum fragmentation = 0
Average fragmentation = 4075.5
Maximum fragmentation = 15264
Minimum injected packet rate = 0 (at node 0)
Average injected packet rate = 7.8125e-06
Maximum injected packet rate = 0.000133333 (at node 33)
Minimum accepted packet rate = 0 (at node 0)
Average accepted packet rate = 3.125e-06
Maximum accepted packet rate = 6.66667e-05 (at node 5)
Minimum injected flit rate = 0 (at node 0)
Average injected flit rate = 3.54167e-05
Maximum injected flit rate = 0.000633333 (at node 33)
Minimum accepted flit rate = 0 (at node 0)
Average accepted flit rate = 1.97917e-05
Maximum accepted flit rate = 0.000466667 (at node 23)
Total number of injected packets = 15
Total number of injected flits = 68
Average injected packet length = 4.53333
Total number of accepted packets = 6
Total number of accepted flits = 38
Average accepted packet length = 6.33333
Total in-flight flits = 38 (0 measured)
Warmup ends after 30000 cycles.
Beginning measurements...
===== Time: 40000 =====
Class 0:
Packets read from trace = 936 of 16982735 (0%)
Future packets = 1
Waiting packets = 0
Stalled packets = 906
Packets pending injection = 12
Packets in flight = 11
Minimum packet latency = nan
Average packet latency = -nan
Maximum packet latency = -nan
Minimum network latency = nan
Average network latency = -nan
Maximum network latency = -nan
Slowest packet = -1
Minimum flit latency = nan
Average flit latency = -nan
Maximum flit latency = -nan
Slowest flit = -1
Minimum fragmentation = nan
Average fragmentation = -nan
Maximum fragmentation = -nan
Minimum injected packet rate = 0 (at node 0)
Average injected packet rate = 1.5625e-06
Maximum injected packet rate = 0.0001 (at node 37)
Minimum accepted packet rate = 0 (at node 0)
Average accepted packet rate = 0
Maximum accepted packet rate = 0 (at node 0)
Minimum injected flit rate = 0 (at node 0)
Average injected flit rate = 6.25e-06
Maximum injected flit rate = 0.0004 (at node 37)
Minimum accepted flit rate = 0 (at node 0)
Average accepted flit rate = 0
Maximum accepted flit rate = 0 (at node 0)
Total number of injected packets = 1
Total number of injected flits = 4
Average injected packet length = 4
Total number of accepted packets = 0
Total number of accepted flits = 0
Average accepted packet length = -nan
Total in-flight flits = 43 (5 measured)
===== Time: 50000 =====
Class 0:
Packets read from trace = 1167 of 16982735 (0%)
Future packets = 1
Waiting packets = 0
Stalled packets = 1132
Packets pending injection = 16
Packets in flight = 12
Minimum packet latency = nan
Average packet latency = -nan
Maximum packet latency = -nan
Minimum network latency = nan
Average network latency = -nan
Maximum network latency = -nan
Slowest packet = -1
Minimum flit latency = nan
Average flit latency = -nan
Maximum flit latency = -nan
Slowest flit = -1
Minimum fragmentation = nan
Average fragmentation = -nan
Maximum fragmentation = -nan
Minimum injected packet rate = 0 (at node 0)
Average injected packet rate = 1.5625e-06
Maximum injected packet rate = 5e-05 (at node 35)
Minimum accepted packet rate = 0 (at node 0)
Average accepted packet rate = 0
Maximum accepted packet rate = 0 (at node 0)
Minimum injected flit rate = 0 (at node 0)
Average injected flit rate = 6.25e-06
Maximum injected flit rate = 0.0002 (at node 35)
Minimum accepted flit rate = 0 (at node 0)
Average accepted flit rate = 0
Maximum accepted flit rate = 0 (at node 0)
Total number of injected packets = 2
Total number of injected flits = 8
Average injected packet length = 4
Total number of accepted packets = 0
Total number of accepted flits = 0
Average accepted packet length = -nan
Total in-flight flits = 48 (10 measured)
===== Time: 60000 =====
Class 0:
Packets read from trace = 1390 of 16982735 (0%)
Future packets = 1
Waiting packets = 0
Stalled packets = 1353
Packets pending injection = 18
Packets in flight = 12
Minimum packet latency = nan
Average packet latency = -nan
Maximum packet latency = -nan
Minimum network latency = nan
Average network latency = -nan
Maximum network latency = -nan
Slowest packet = -1
Minimum flit latency = nan
Average flit latency = -nan
Maximum flit latency = -nan
Slowest flit = -1
Minimum fragmentation = nan
Average fragmentation = -nan
Maximum fragmentation = -nan
Minimum injected packet rate = 0 (at node 0)
Average injected packet rate = 1.04167e-06
Maximum injected packet rate = 3.33333e-05 (at node 35)
Minimum accepted packet rate = 0 (at node 0)
Average accepted packet rate = 0
Maximum accepted packet rate = 0 (at node 0)
Minimum injected flit rate = 0 (at node 0)
Average injected flit rate = 4.16667e-06
Maximum injected flit rate = 0.000133333 (at node 35)
Minimum accepted flit rate = 0 (at node 0)
Average accepted flit rate = 0
Maximum accepted flit rate = 0 (at node 0)
Total number of injected packets = 2
Total number of injected flits = 8
Average injected packet length = 4
Total number of accepted packets = 0
Total number of accepted flits = 0
Average accepted packet length = -nan
Total in-flight flits = 48 (10 measured)
===== Time: 70000 =====
Class 0:
Packets read from trace = 1617 of 16982735 (0%)
Future packets = 1
Waiting packets = 0
Stalled packets = 1576
Packets pending injection = 22
Packets in flight = 12
Minimum packet latency = nan
Average packet latency = -nan
Maximum packet latency = -nan
Minimum network latency = nan
Average network latency = -nan
Maximum network latency = -nan
Slowest packet = -1
Minimum flit latency = nan
Average flit latency = -nan
Maximum flit latency = -nan
Slowest flit = -1
Minimum fragmentation = nan
Average fragmentation = -nan
Maximum fragmentation = -nan
Minimum injected packet rate = 0 (at node 0)
Average injected packet rate = 7.8125e-07
Maximum injected packet rate = 2.5e-05 (at node 35)
Minimum accepted packet rate = 0 (at node 0)
Average accepted packet rate = 0
Maximum accepted packet rate = 0 (at node 0)
Minimum injected flit rate = 0 (at node 0)
Average injected flit rate = 3.125e-06
Maximum injected flit rate = 0.0001 (at node 35)
Minimum accepted flit rate = 0 (at node 0)
Average accepted flit rate = 0
Maximum accepted flit rate = 0 (at node 0)
Total number of injected packets = 2
Total number of injected flits = 8
Average injected packet length = 4
Total number of accepted packets = 0
Total number of accepted flits = 0
Average accepted packet length = -nan
Total in-flight flits = 48 (10 measured)
===== Time: 80000 =====
Class 0:
Packets read from trace = 1844 of 16982735 (0%)
Future packets = 1
Waiting packets = 1
Stalled packets = 1799
Packets pending injection = 25
Packets in flight = 12
Minimum packet latency = nan
Average packet latency = -nan
Maximum packet latency = -nan
Minimum network latency = nan
Average network latency = -nan
Maximum network latency = -nan
Slowest packet = -1
Minimum flit latency = nan
Average flit latency = -nan
Maximum flit latency = -nan
Slowest flit = -1
Minimum fragmentation = nan
Average fragmentation = -nan
Maximum fragmentation = -nan
Minimum injected packet rate = 0 (at node 0)
Average injected packet rate = 6.25e-07
Maximum injected packet rate = 2e-05 (at node 35)
Minimum accepted packet rate = 0 (at node 0)
Average accepted packet rate = 0
Maximum accepted packet rate = 0 (at node 0)
Minimum injected flit rate = 0 (at node 0)
Average injected flit rate = 2.5e-06
Maximum injected flit rate = 8e-05 (at node 35)
Minimum accepted flit rate = 0 (at node 0)
Average accepted flit rate = 0
Maximum accepted flit rate = 0 (at node 0)
Total number of injected packets = 2
Total number of injected flits = 8
Average injected packet length = 4
Total number of accepted packets = 0
Total number of accepted flits = 0
Average accepted packet length = -nan
Total in-flight flits = 48 (10 measured)
===== Time: 90000 =====
Class 0:
Packets read from trace = 2070 of 16982735 (0%)
Future packets = 1
Waiting packets = 0
Stalled packets = 2022
Packets pending injection = 29
Packets in flight = 12
Minimum packet latency = nan
Average packet latency = -nan
Maximum packet latency = -nan
Minimum network latency = nan
Average network latency = -nan
Maximum network latency = -nan
Slowest packet = -1
Minimum flit latency = nan
Average flit latency = -nan
Maximum flit latency = -nan
Slowest flit = -1
Minimum fragmentation = nan
Average fragmentation = -nan
Maximum fragmentation = -nan
Minimum injected packet rate = 0 (at node 0)
Average injected packet rate = 5.20833e-07
Maximum injected packet rate = 1.66667e-05 (at node 35)
Minimum accepted packet rate = 0 (at node 0)
Average accepted packet rate = 0
Maximum accepted packet rate = 0 (at node 0)
Minimum injected flit rate = 0 (at node 0)
Average injected flit rate = 2.08333e-06
Maximum injected flit rate = 6.66667e-05 (at node 35)
Minimum accepted flit rate = 0 (at node 0)
Average accepted flit rate = 0
Maximum accepted flit rate = 0 (at node 0)
Total number of injected packets = 2
Total number of injected flits = 8
Average injected packet length = 4
Total number of accepted packets = 0
Total number of accepted flits = 0
Average accepted packet length = -nan
Total in-flight flits = 48 (10 measured)
===== Time: 100000 =====
Class 0:
Packets read from trace = 2298 of 16982735 (0%)
Future packets = 1
Waiting packets = 0
Stalled packets = 2243
Packets pending injection = 36
Packets in flight = 12
Minimum packet latency = nan
Average packet latency = -nan
Maximum packet latency = -nan
Minimum network latency = nan
Average network latency = -nan
Maximum network latency = -nan
Slowest packet = -1
Minimum flit latency = nan
Average flit latency = -nan
Maximum flit latency = -nan
Slowest flit = -1
Minimum fragmentation = nan
Average fragmentation = -nan
Maximum fragmentation = -nan
Minimum injected packet rate = 0 (at node 0)
Average injected packet rate = 4.46429e-07
Maximum injected packet rate = 1.42857e-05 (at node 35)
Minimum accepted packet rate = 0 (at node 0)
Average accepted packet rate = 0
Maximum accepted packet rate = 0 (at node 0)
Minimum injected flit rate = 0 (at node 0)
Average injected flit rate = 1.78571e-06
Maximum injected flit rate = 5.71429e-05 (at node 35)
Minimum accepted flit rate = 0 (at node 0)
Average accepted flit rate = 0
Maximum accepted flit rate = 0 (at node 0)
Total number of injected packets = 2
Total number of injected flits = 8
Average injected packet length = 4
Total number of accepted packets = 0
Total number of accepted flits = 0
Average accepted packet length = -nan
Total in-flight flits = 48 (10 measured)
===== Time: 110000 =====
Class 0:
Packets read from trace = 2523 of 16982735 (0%)
Future packets = 1
Waiting packets = 0
Stalled packets = 2468
Packets pending injection = 36
Packets in flight = 12
Minimum packet latency = nan
Average packet latency = -nan
Maximum packet latency = -nan
Minimum network latency = nan
Average network latency = -nan
Maximum network latency = -nan
Slowest packet = -1
Minimum flit latency = nan
Average flit latency = -nan
Maximum flit latency = -nan
Slowest flit = -1
Minimum fragmentation = nan
Average fragmentation = -nan
Maximum fragmentation = -nan
Minimum injected packet rate = 0 (at node 0)
Average injected packet rate = 3.90625e-07
Maximum injected packet rate = 1.25e-05 (at node 35)
Minimum accepted packet rate = 0 (at node 0)
Average accepted packet rate = 0
Maximum accepted packet rate = 0 (at node 0)
Minimum injected flit rate = 0 (at node 0)
Average injected flit rate = 1.5625e-06
Maximum injected flit rate = 5e-05 (at node 35)
Minimum accepted flit rate = 0 (at node 0)
Average accepted flit rate = 0
Maximum accepted flit rate = 0 (at node 0)
Total number of injected packets = 2
Total number of injected flits = 8
Average injected packet length = 4
Total number of accepted packets = 0
Total number of accepted flits = 0
Average accepted packet length = -nan
Total in-flight flits = 48 (10 measured)
===== Time: 120000 =====
Class 0:
Packets read from trace = 2749 of 16982735 (0%)
Future packets = 1
Waiting packets = 0
Stalled packets = 2689
Packets pending injection = 41
Packets in flight = 12
Minimum packet latency = nan
Average packet latency = -nan
Maximum packet latency = -nan
Minimum network latency = nan
Average network latency = -nan
Maximum network latency = -nan
Slowest packet = -1
Minimum flit latency = nan
Average flit latency = -nan
Maximum flit latency = -nan
Slowest flit = -1
Minimum fragmentation = nan
Average fragmentation = -nan
Maximum fragmentation = -nan
Minimum injected packet rate = 0 (at node 0)
Average injected packet rate = 3.47222e-07
Maximum injected packet rate = 1.11111e-05 (at node 35)
Minimum accepted packet rate = 0 (at node 0)
Average accepted packet rate = 0
Maximum accepted packet rate = 0 (at node 0)
Minimum injected flit rate = 0 (at node 0)
Average injected flit rate = 1.38889e-06
Maximum injected flit rate = 4.44444e-05 (at node 35)
Minimum accepted flit rate = 0 (at node 0)
Average accepted flit rate = 0
Maximum accepted flit rate = 0 (at node 0)
Total number of injected packets = 2
Total number of injected flits = 8
Average injected packet length = 4
Total number of accepted packets = 0
Total number of accepted flits = 0
Average accepted packet length = -nan
Total in-flight flits = 48 (10 measured)
===== Time: 130000 =====
Class 0:
Packets read from trace = 2970 of 16982735 (0%)
Future packets = 1
Waiting packets = 0
Stalled packets = 2910
Packets pending injection = 41
Packets in flight = 12
Minimum packet latency = nan
Average packet latency = -nan
Maximum packet latency = -nan
Minimum network latency = nan
Average network latency = -nan
Maximum network latency = -nan
Slowest packet = -1
Minimum flit latency = nan
Average flit latency = -nan
Maximum flit latency = -nan
Slowest flit = -1
Minimum fragmentation = nan
Average fragmentation = -nan
Maximum fragmentation = -nan
Minimum injected packet rate = 0 (at node 0)
Average injected packet rate = 3.125e-07
Maximum injected packet rate = 1e-05 (at node 35)
Minimum accepted packet rate = 0 (at node 0)
Average accepted packet rate = 0
Maximum accepted packet rate = 0 (at node 0)
Minimum injected flit rate = 0 (at node 0)
Average injected flit rate = 1.25e-06
Maximum injected flit rate = 4e-05 (at node 35)
Minimum accepted flit rate = 0 (at node 0)
Average accepted flit rate = 0
Maximum accepted flit rate = 0 (at node 0)
Total number of injected packets = 2
Total number of injected flits = 8
Average injected packet length = 4
Total number of accepted packets = 0
Total number of accepted flits = 0
Average accepted packet length = -nan
Total in-flight flits = 48 (10 measured)
Completed measurements after 130000 cycles.
Draining remaining packets ...
Class 0:
Remaining flits: 5 20 21 22 23 24 25 31 32 33 [...] (48 flits)
Measured flits: 76 77 78 79 80 81 82 83 84 85 (10 flits)
Class 0:
Remaining flits: 5 20 21 22 23 24 25 31 32 33 [...] (48 flits)
Measured flits: 76 77 78 79 80 81 82 83 84 85 (10 flits)
Class 0:
Remaining flits: 5 20 21 22 23 24 25 31 32 33 [...] (47 flits)
Measured flits: 76 77 78 79 80 81 82 83 84 85 (10 flits)
Class 0:
Remaining flits: 5 20 21 22 23 24 25 31 32 33 [...] (47 flits)
Measured flits: 76 77 78 79 80 81 82 83 84 85 (10 flits)
Class 0:
Remaining flits: 5 20 21 22 23 24 25 31 32 33 [...] (47 flits)
Measured flits: 76 77 78 79 80 81 82 83 84 85 (10 flits)
Class 0:
Remaining flits: 5 20 21 22 23 24 25 31 32 33 [...] (43 flits)
Measured flits: 80 81 82 83 84 85 (6 flits)
Class 0:
Remaining flits: 5 20 21 22 23 24 25 31 32 33 [...] (42 flits)
Measured flits: 81 82 83 84 85 (5 flits)
Class 0:
Remaining flits: 5 20 21 22 23 24 25 31 32 33 [...] (41 flits)
Measured flits: 81 82 83 84 85 (5 flits)
Class 0:
Remaining flits: 5 20 21 22 23 24 25 31 32 33 [...] (37 flits)
Measured flits: 81 82 83 84 85 (5 flits)
Class 0:
Remaining flits: 5 20 21 22 23 24 25 31 32 33 [...] (37 flits)
Measured flits: 81 82 83 84 85 (5 flits)
Class 0:
Remaining flits: 5 20 21 22 23 24 25 31 32 33 [...] (37 flits)
Measured flits: 81 82 83 84 85 (5 flits)
Class 0:
Remaining flits: 5 20 21 22 23 24 25 31 32 33 [...] (32 flits)
Measured flits: (0 flits)
Class 0:
Remaining flits: 5 20 21 22 23 24 25 31 32 33 [...] (32 flits)
Measured flits: (0 flits)
Class 0:
Remaining flits: 5 20 21 22 23 24 25 31 32 33 [...] (32 flits)
Measured flits: (0 flits)
Class 0:
Remaining flits: 5 20 21 22 23 24 25 31 32 33 [...] (27 flits)
Measured flits: (0 flits)
Class 0:
Remaining flits: 5 20 21 22 23 24 25 31 32 33 [...] (27 flits)
Measured flits: (0 flits)
Class 0:
Remaining flits: 5 20 21 22 23 24 25 31 32 33 [...] (27 flits)
Measured flits: (0 flits)
Class 0:
Remaining flits: 5 20 21 22 23 24 25 31 32 33 [...] (27 flits)
Measured flits: (0 flits)
Class 0:
Remaining flits: 5 20 21 22 23 24 25 31 32 33 [...] (27 flits)
Measured flits: (0 flits)
Class 0:
Remaining flits: 5 20 21 22 23 24 25 31 32 33 [...] (27 flits)
Measured flits: (0 flits)
Class 0:
Remaining flits: 5 20 21 22 23 24 25 31 32 33 [...] (27 flits)
Measured flits: (0 flits)
Class 0:
Remaining flits: 5 20 21 22 23 24 25 31 32 33 [...] (27 flits)
Measured flits: (0 flits)
Class 0:
Remaining flits: 5 20 21 22 23 24 25 31 32 33 [...] (27 flits)
Measured flits: (0 flits)
Class 0:
Remaining flits: 5 20 21 22 23 24 25 31 32 33 [...] (27 flits)
Measured flits: (0 flits)
Class 0:
Remaining flits: 5 20 21 22 23 24 25 31 32 33 [...] (27 flits)
Measured flits: (0 flits)
Class 0:
Remaining flits: 5 20 21 22 23 24 25 31 32 33 [...] (27 flits)
Measured flits: (0 flits)
Class 0:
Remaining flits: 5 20 21 22 23 24 25 31 32 33 [...] (27 flits)
Measured flits: (0 flits)
Class 0:
Remaining flits: 5 20 21 22 23 24 25 31 32 33 [...] (27 flits)
Measured flits: (0 flits)
Class 0:
Remaining flits: 5 20 21 22 23 24 25 31 32 33 [...] (27 flits)
Measured flits: (0 flits)
Class 0:
Remaining flits: 5 20 21 22 23 24 25 31 32 33 [...] (27 flits)
Measured flits: (0 flits)
Class 0:
Remaining flits: 5 20 21 22 23 24 25 31 32 33 [...] (27 flits)
Measured flits: (0 flits)
Class 0:
Remaining flits: 5 20 21 22 23 24 25 31 32 33 [...] (27 flits)
Measured flits: (0 flits)
Class 0:
Remaining flits: 5 20 21 22 23 24 25 31 32 33 [...] (27 flits)
Measured flits: (0 flits)
Class 0:
Remaining flits: 5 20 21 22 23 24 25 31 32 33 [...] (27 flits)
Measured flits: (0 flits)
Class 0:
Remaining flits: 5 20 21 22 23 24 25 31 32 33 [...] (27 flits)
Measured flits: (0 flits)
Class 0:
Remaining flits: 5 20 21 22 23 24 25 31 32 33 [...] (27 flits)
Measured flits: (0 flits)
Class 0:
Remaining flits: 5 20 21 22 23 24 25 31 32 33 [...] (27 flits)
Measured flits: (0 flits)
Class 0:
Remaining flits: 5 20 21 22 23 24 25 31 32 33 [...] (27 flits)
Measured flits: (0 flits)
Class 0:
Remaining flits: 5 20 21 22 23 24 25 31 32 33 [...] (27 flits)
Measured flits: (0 flits)
Class 0:
Remaining flits: 5 20 21 22 23 24 25 31 32 33 [...] (27 flits)
Measured flits: (0 flits)
Class 0:
Remaining flits: 5 20 21 22 23 24 25 31 32 33 [...] (27 flits)
Measured flits: (0 flits)
Class 0:
Remaining flits: 5 20 21 22 23 24 25 31 32 33 [...] (27 flits)
Measured flits: (0 flits)
Class 0:
Remaining flits: 5 20 21 22 23 24 25 31 32 33 [...] (27 flits)
Measured flits: (0 flits)
Class 0:
Remaining flits: 5 20 21 22 23 24 25 31 32 33 [...] (27 flits)
Measured flits: (0 flits)
Class 0:
Remaining flits: 5 20 21 22 23 24 25 31 32 33 [...] (27 flits)
Measured flits: (0 flits)
Class 0:
Remaining flits: 5 20 21 22 23 24 25 31 32 33 [...] (27 flits)
Measured flits: (0 flits)
Class 0:
Remaining flits: 5 20 21 22 23 24 25 31 32 33 [...] (27 flits)
Measured flits: (0 flits)
Class 0:
Remaining flits: 5 20 21 22 23 24 25 31 32 33 [...] (27 flits)
Measured flits: (0 flits)
Class 0:
Remaining flits: 5 20 21 22 23 24 25 31 32 33 [...] (27 flits)
Measured flits: (0 flits)
Class 0:
Remaining flits: 5 20 21 22 23 24 25 31 32 33 [...] (27 flits)
Measured flits: (0 flits)
Class 0:
Remaining flits: 5 20 21 22 23 24 25 31 32 33 [...] (27 flits)
Measured flits: (0 flits)
Class 0:
Remaining flits: 5 20 21 22 23 24 25 31 32 33 [...] (27 flits)
Measured flits: (0 flits)
Class 0:
Remaining flits: 5 20 21 22 23 24 25 31 32 33 [...] (27 flits)
Measured flits: (0 flits)
Class 0:
Remaining flits: 5 20 21 22 23 24 25 31 32 33 [...] (27 flits)
Measured flits: (0 flits)
Class 0:
Remaining flits: 5 20 21 22 23 24 25 31 32 33 [...] (27 flits)
Measured flits: (0 flits)
Class 0:
Remaining flits: 5 20 21 22 23 24 25 31 32 33 [...] (27 flits)
Measured flits: (0 flits)
Class 0:
Remaining flits: 5 20 21 22 23 24 25 31 32 33 [...] (27 flits)
Measured flits: (0 flits)
Class 0:
Remaining flits: 5 20 21 22 23 24 25 31 32 33 [...] (27 flits)
Measured flits: (0 flits)
Class 0:
Remaining flits: 5 20 21 22 23 24 25 31 32 33 [...] (27 flits)
Measured flits: (0 flits)
Class 0:
Remaining flits: 5 20 21 22 23 24 25 31 32 33 [...] (27 flits)
Measured flits: (0 flits)
Class 0:
Remaining flits: 5 20 21 22 23 24 25 31 32 33 [...] (27 flits)
Measured flits: (0 flits)
Class 0:
Remaining flits: 5 20 21 22 23 24 25 31 32 33 [...] (27 flits)
Measured flits: (0 flits)
Class 0:
Remaining flits: 5 20 21 22 23 24 25 31 32 33 [...] (27 flits)
Measured flits: (0 flits)
Class 0:
Remaining flits: 5 20 21 22 23 24 25 31 32 33 [...] (27 flits)
Measured flits: (0 flits)
Class 0:
Remaining flits: 5 20 21 22 23 24 25 31 32 33 [...] (27 flits)
Measured flits: (0 flits)
Class 0:
Remaining flits: 5 20 21 22 23 24 25 31 32 33 [...] (27 flits)
Measured flits: (0 flits)
Class 0:
Remaining flits: 5 20 21 22 23 24 25 31 32 33 [...] (27 flits)
Measured flits: (0 flits)
Class 0:
Remaining flits: 5 20 21 22 23 24 25 31 32 33 [...] (27 flits)
Measured flits: (0 flits)
Class 0:
Remaining flits: 5 20 21 22 23 24 25 31 32 33 [...] (27 flits)
Measured flits: (0 flits)
Class 0:
Remaining flits: 5 20 21 22 23 24 25 31 32 33 [...] (27 flits)
Measured flits: (0 flits)
Class 0:
Remaining flits: 5 20 21 22 23 24 25 31 32 33 [...] (27 flits)
Measured flits: (0 flits)
Class 0:
Remaining flits: 5 20 21 22 23 24 25 31 32 33 [...] (27 flits)
Measured flits: (0 flits)
Class 0:
Remaining flits: 5 20 21 22 23 24 25 31 32 33 [...] (27 flits)
Measured flits: (0 flits)
Class 0:
Remaining flits: 5 20 21 22 23 24 25 31 32 33 [...] (27 flits)
Measured flits: (0 flits)
Class 0:
Remaining flits: 5 20 21 22 23 24 25 31 32 33 [...] (27 flits)
Measured flits: (0 flits)
Class 0:
Remaining flits: 5 20 21 22 23 24 25 31 32 33 [...] (27 flits)
Measured flits: (0 flits)
Class 0:
Remaining flits: 5 20 21 22 23 24 25 31 32 33 [...] (27 flits)
Measured flits: (0 flits)
Class 0:
Remaining flits: 5 20 21 22 23 24 25 31 32 33 [...] (27 flits)
Measured flits: (0 flits)
Class 0:
Remaining flits: 5 20 21 22 23 24 25 31 32 33 [...] (27 flits)
Measured flits: (0 flits)
Class 0:
Remaining flits: 5 20 21 22 23 24 25 31 32 33 [...] (27 flits)
Measured flits: (0 flits)
Class 0:
Remaining flits: 5 20 21 22 23 24 25 31 32 33 [...] (27 flits)
Measured flits: (0 flits)
Class 0:
Remaining flits: 5 20 21 22 23 24 25 31 32 33 [...] (27 flits)
Measured flits: (0 flits)
Class 0:
Remaining flits: 5 20 21 22 23 24 25 31 32 33 [...] (27 flits)
Measured flits: (0 flits)
Class 0:
Remaining flits: 5 20 21 22 23 24 25 31 32 33 [...] (27 flits)
Measured flits: (0 flits)
Class 0:
Remaining flits: 5 20 21 22 23 24 25 31 32 33 [...] (27 flits)
Measured flits: (0 flits)
Class 0:
Remaining flits: 5 20 21 22 23 24 25 31 32 33 [...] (27 flits)
Measured flits: (0 flits)
Class 0:
Remaining flits: 5 20 21 22 23 24 25 31 32 33 [...] (27 flits)
Measured flits: (0 flits)
Class 0:
Remaining flits: 5 20 21 22 23 24 25 31 32 33 [...] (27 flits)
Measured flits: (0 flits)
Class 0:
Remaining flits: 5 20 21 22 23 24 25 31 32 33 [...] (27 flits)
Measured flits: (0 flits)
Class 0:
Remaining flits: 5 20 21 22 23 24 25 31 32 33 [...] (27 flits)
Measured flits: (0 flits)
Class 0:
Remaining flits: 5 20 21 22 23 24 25 31 32 33 [...] (27 flits)
Measured flits: (0 flits)
Class 0:
Remaining flits: 5 20 21 22 23 24 25 31 32 33 [...] (27 flits)
Measured flits: (0 flits)
Class 0:
Remaining flits: 5 20 21 22 23 24 25 31 32 33 [...] (27 flits)
Measured flits: (0 flits)
Class 0:
Remaining flits: 5 20 21 22 23 24 25 31 32 33 [...] (27 flits)
Measured flits: (0 flits)
Class 0:
Remaining flits: 5 20 21 22 23 24 25 31 32 33 [...] (27 flits)
Measured flits: (0 flits)
Class 0:
Remaining flits: 5 20 21 22 23 24 25 31 32 33 [...] (27 flits)
Measured flits: (0 flits)
Class 0:
Remaining flits: 5 20 21 22 23 24 25 31 32 33 [...] (27 flits)
Measured flits: (0 flits)
Class 0:
Remaining flits: 5 20 21 22 23 24 25 31 32 33 [...] (27 flits)
Measured flits: (0 flits)
Class 0:
Remaining flits: 5 20 21 22 23 24 25 31 32 33 [...] (27 flits)
Measured flits: (0 flits)
Class 0:
Remaining flits: 5 20 21 22 23 24 25 31 32 33 [...] (27 flits)
Measured flits: (0 flits)
Class 0:
Remaining flits: 5 20 21 22 23 24 25 31 32 33 [...] (27 flits)
Measured flits: (0 flits)
Time taken is 131000 cycles
====== Traffic class 0 ======

Total number of flits generated = 86, changed lanes = 0
Overall minimum packet latency = 87194 (1 samples)
Overall average packet latency = 89969.5 (1 samples)
Overall maximum packet latency = 92745 (1 samples)
Overall minimum network latency = 87194 (1 samples)
Overall average network latency = 89969.5 (1 samples)
Overall maximum network latency = 92745 (1 samples)
Overall minimum flit latency = 44 (1 samples)
Overall average flit latency = 85645.4 (1 samples)
Overall maximum flit latency = 109719 (1 samples)
Overall minimum fragmentation = 4 (1 samples)
Overall average fragmentation = 4.5 (1 samples)
Overall maximum fragmentation = 5 (1 samples)
Overall minimum injected packet rate = 0 (1 samples)
Overall average injected packet rate = 3.125e-07 (1 samples)
Overall maximum injected packet rate = 1e-05 (1 samples)
Overall minimum accepted packet rate = 0 (1 samples)
Overall average accepted packet rate = 0 (1 samples)
Overall maximum accepted packet rate = 0 (1 samples)
Overall minimum injected flit rate = 0 (1 samples)
Overall average injected flit rate = 1.25e-06 (1 samples)
Overall maximum injected flit rate = 4e-05 (1 samples)
Overall minimum accepted flit rate = 0 (1 samples)
Overall average accepted flit rate = 0 (1 samples)
Overall maximum accepted flit rate = 0 (1 samples)
Overall average injected packet size = 4 (1 samples)
Overall average accepted packet size = -nan (1 samples)
Overall average hops = 5.5 (1 samples)
Overall throughput of the network (flits/cycle) = 0.00059
Overall throughput of the network (packets/cycle) = 0.00011
Overall workload runtime = 100000 (1 samples)

The distribution of the source packets of size 1 is: 

Source [0] = 0
Source [1] = 0
Source [2] = 0
Source [3] = 0
Source [4] = 0
Source [5] = 0
Source [6] = 0
Source [7] = 0
Source [8] = 0
Source [9] = 0
Source [10] = 0
Source [11] = 0
Source [12] = 0
Source [13] = 0
Source [14] = 0
Source [15] = 0
Source [16] = 0
Source [17] = 0
Source [18] = 0
Source [19] = 0
Source [20] = 0
Source [21] = 0
Source [22] = 0
Source [23] = 0
Source [24] = 0
Source [25] = 0
Source [26] = 0
Source [27] = 0
Source [28] = 0
Source [29] = 0
Source [30] = 0
Source [31] = 0
Source [32] = 0
Source [33] = 0
Source [34] = 0
Source [35] = 0
Source [36] = 0
Source [37] = 0
Source [38] = 0
Source [39] = 0
Source [40] = 0
Source [41] = 0
Source [42] = 0
Source [43] = 0
Source [44] = 0
Source [45] = 0
Source [46] = 0
Source [47] = 0
Source [48] = 0
Source [49] = 0
Source [50] = 0
Source [51] = 0
Source [52] = 0
Source [53] = 0
Source [54] = 0
Source [55] = 0
Source [56] = 0
Source [57] = 0
Source [58] = 0
Source [59] = 0
Source [60] = 0
Source [61] = 1
Source [62] = 0
Source [63] = 0
The distribution of the source packets of size 5 is: 

Source [0] = 0
Source [1] = 0
Source [2] = 0
Source [3] = 0
Source [4] = 0
Source [5] = 0
Source [6] = 0
Source [7] = 0
Source [8] = 0
Source [9] = 0
Source [10] = 0
Source [11] = 0
Source [12] = 0
Source [13] = 0
Source [14] = 0
Source [15] = 0
Source [16] = 0
Source [17] = 0
Source [18] = 0
Source [19] = 0
Source [20] = 0
Source [21] = 0
Source [22] = 0
Source [23] = 0
Source [24] = 0
Source [25] = 0
Source [26] = 0
Source [27] = 0
Source [28] = 0
Source [29] = 0
Source [30] = 0
Source [31] = 2
Source [32] = 0
Source [33] = 4
Source [34] = 0
Source [35] = 4
Source [36] = 0
Source [37] = 2
Source [38] = 0
Source [39] = 2
Source [40] = 3
Source [41] = 0
Source [42] = 0
Source [43] = 0
Source [44] = 0
Source [45] = 0
Source [46] = 0
Source [47] = 0
Source [48] = 0
Source [49] = 0
Source [50] = 0
Source [51] = 0
Source [52] = 0
Source [53] = 0
Source [54] = 0
Source [55] = 0
Source [56] = 0
Source [57] = 0
Source [58] = 0
Source [59] = 0
Source [60] = 0
Source [61] = 0
Source [62] = 0
Source [63] = 0
The distribution of the dest packets of size 1 is: 

dest [0] = 0
dest [1] = 0
dest [2] = 0
dest [3] = 0
dest [4] = 0
dest [5] = 0
dest [6] = 0
dest [7] = 0
dest [8] = 0
dest [9] = 0
dest [10] = 0
dest [11] = 0
dest [12] = 0
dest [13] = 0
dest [14] = 0
dest [15] = 0
dest [16] = 0
dest [17] = 0
dest [18] = 0
dest [19] = 0
dest [20] = 0
dest [21] = 0
dest [22] = 0
dest [23] = 0
dest [24] = 0
dest [25] = 0
dest [26] = 0
dest [27] = 0
dest [28] = 0
dest [29] = 0
dest [30] = 0
dest [31] = 0
dest [32] = 0
dest [33] = 0
dest [34] = 0
dest [35] = 0
dest [36] = 0
dest [37] = 0
dest [38] = 0
dest [39] = 1
dest [40] = 0
dest [41] = 0
dest [42] = 0
dest [43] = 0
dest [44] = 0
dest [45] = 0
dest [46] = 0
dest [47] = 0
dest [48] = 0
dest [49] = 0
dest [50] = 0
dest [51] = 0
dest [52] = 0
dest [53] = 0
dest [54] = 0
dest [55] = 0
dest [56] = 0
dest [57] = 0
dest [58] = 0
dest [59] = 0
dest [60] = 0
dest [61] = 0
dest [62] = 0
dest [63] = 0
The distribution of the dest packets of size 5 is: 

dest [0] = 0
dest [1] = 0
dest [2] = 4
dest [3] = 0
dest [4] = 0
dest [5] = 4
dest [6] = 0
dest [7] = 0
dest [8] = 0
dest [9] = 0
dest [10] = 0
dest [11] = 0
dest [12] = 0
dest [13] = 0
dest [14] = 0
dest [15] = 0
dest [16] = 0
dest [17] = 0
dest [18] = 0
dest [19] = 0
dest [20] = 0
dest [21] = 0
dest [22] = 0
dest [23] = 4
dest [24] = 0
dest [25] = 0
dest [26] = 0
dest [27] = 0
dest [28] = 0
dest [29] = 0
dest [30] = 0
dest [31] = 0
dest [32] = 0
dest [33] = 0
dest [34] = 0
dest [35] = 0
dest [36] = 0
dest [37] = 0
dest [38] = 0
dest [39] = 0
dest [40] = 0
dest [41] = 0
dest [42] = 0
dest [43] = 0
dest [44] = 0
dest [45] = 0
dest [46] = 0
dest [47] = 2
dest [48] = 0
dest [49] = 0
dest [50] = 0
dest [51] = 0
dest [52] = 0
dest [53] = 0
dest [54] = 0
dest [55] = 0
dest [56] = 0
dest [57] = 0
dest [58] = 0
dest [59] = 0
dest [60] = 0
dest [61] = 3
dest [62] = 0
dest [63] = 0Total run time 337.752
