make: Nothing to be done for 'all'.
Master: Running timer....
Master: Running SRC....
BEGIN Configuration File: ./examples/bitrev
// Topology

topology = torus;
k = 4;
n = 2;

// Routing
routing_function = dim_order;

// Flow control
num_vcs     = 16;
vc_buf_size = 2;
wait_for_tail_credit = 0;

// Router architecture
vc_allocator = islip;
sw_allocator = islip;
alloc_iters  = 1;

credit_delay   = 1;
routing_delay  = 1;
vc_alloc_delay = 1;
sw_alloc_delay = 1;

input_speedup     = 1;
output_speedup    = 1;
internal_speedup  = 1.0;

vc_busy_when_full = 0;

// Traffic
traffic = uniform;
packet_size = 1;

// Simulation
sim_type = throughput;

injection_rate = 0.05;

END Configuration File: ./examples/bitrev
===== Time: 10000 =====
Class 0:
Minimum packet latency = 7
Average packet latency = 34.4939
Maximum packet latency = 87
Minimum network latency = 8
Average network latency = 35.4939
Maximum network latency = 88
Slowest packet = 4326
Minimum flit latency = 8
Average flit latency = 35.4939
Maximum flit latency = 88
Slowest flit = 4326
Minimum fragmentation = 0
Average fragmentation = 0
Maximum fragmentation = 0
Minimum injected packet rate = 0.0458 (at node 0)
Average injected packet rate = 0.0494687
Maximum injected packet rate = 0.0515 (at node 12)
Minimum accepted packet rate = 0.0436 (at node 4)
Average accepted packet rate = 0.0493188
Maximum accepted packet rate = 0.0538 (at node 7)
Minimum injected flit rate = 0.0458 (at node 0)
Average injected flit rate = 0.0494687
Maximum injected flit rate = 0.0515 (at node 12)
Minimum accepted flit rate = 0.0436 (at node 4)
Average accepted flit rate = 0.0493188
Maximum accepted flit rate = 0.0538 (at node 7)
Total number of injected packets = 7915
Total number of injected flits = 7915
Average injected packet length = 1
Total number of accepted packets = 7891
Total number of accepted flits = 7891
Average accepted packet length = 1
Total in-flight flits = 24 (0 measured)
===== Time: 20000 =====
Class 0:
Minimum packet latency = 7
Average packet latency = 34.6327
Maximum packet latency = 219
Minimum network latency = 8
Average network latency = 35.6327
Maximum network latency = 220
Slowest packet = 15263
Minimum flit latency = 8
Average flit latency = 35.6327
Maximum flit latency = 220
Slowest flit = 15263
Minimum fragmentation = 0
Average fragmentation = 0
Maximum fragmentation = 0
Minimum injected packet rate = 0.0483 (at node 8)
Average injected packet rate = 0.0500375
Maximum injected packet rate = 0.0526 (at node 12)
Minimum accepted packet rate = 0.04475 (at node 4)
Average accepted packet rate = 0.0499375
Maximum accepted packet rate = 0.05235 (at node 8)
Minimum injected flit rate = 0.0483 (at node 8)
Average injected flit rate = 0.0500375
Maximum injected flit rate = 0.0526 (at node 12)
Minimum accepted flit rate = 0.04475 (at node 4)
Average accepted flit rate = 0.0499375
Maximum accepted flit rate = 0.05235 (at node 8)
Total number of injected packets = 16012
Total number of injected flits = 16012
Average injected packet length = 1
Total number of accepted packets = 15980
Total number of accepted flits = 15980
Average accepted packet length = 1
Total in-flight flits = 32 (0 measured)
===== Time: 30000 =====
Class 0:
Minimum packet latency = 8
Average packet latency = 35.0629
Maximum packet latency = 187
Minimum network latency = 9
Average network latency = 36.0629
Maximum network latency = 188
Slowest packet = 19027
Minimum flit latency = 9
Average flit latency = 36.0629
Maximum flit latency = 188
Slowest flit = 19027
Minimum fragmentation = 0
Average fragmentation = 0
Maximum fragmentation = 0
Minimum injected packet rate = 0.045 (at node 15)
Average injected packet rate = 0.0495875
Maximum injected packet rate = 0.0541 (at node 13)
Minimum accepted packet rate = 0.0464 (at node 4)
Average accepted packet rate = 0.0496625
Maximum accepted packet rate = 0.0528 (at node 7)
Minimum injected flit rate = 0.045 (at node 15)
Average injected flit rate = 0.0495875
Maximum injected flit rate = 0.0541 (at node 13)
Minimum accepted flit rate = 0.0464 (at node 4)
Average accepted flit rate = 0.0496625
Maximum accepted flit rate = 0.0528 (at node 7)
Total number of injected packets = 7934
Total number of injected flits = 7934
Average injected packet length = 1
Total number of accepted packets = 7946
Total number of accepted flits = 7946
Average accepted packet length = 1
Total in-flight flits = 20 (0 measured)
===== Time: 40000 =====
Class 0:
Minimum packet latency = 8
Average packet latency = 34.5575
Maximum packet latency = 126
Minimum network latency = 9
Average network latency = 35.5575
Maximum network latency = 127
Slowest packet = 29284
Minimum flit latency = 9
Average flit latency = 35.5613
Maximum flit latency = 127
Slowest flit = 29284
Minimum fragmentation = 0
Average fragmentation = 0
Maximum fragmentation = 0
Minimum injected packet rate = 0.0473 (at node 6)
Average injected packet rate = 0.0501938
Maximum injected packet rate = 0.0543 (at node 14)
Minimum accepted packet rate = 0.0463 (at node 13)
Average accepted packet rate = 0.0501375
Maximum accepted packet rate = 0.0555 (at node 7)
Minimum injected flit rate = 0.0473 (at node 6)
Average injected flit rate = 0.0501938
Maximum injected flit rate = 0.0543 (at node 14)
Minimum accepted flit rate = 0.0463 (at node 13)
Average accepted flit rate = 0.0501375
Maximum accepted flit rate = 0.0555 (at node 7)
Total number of injected packets = 8031
Total number of injected flits = 8031
Average injected packet length = 1
Total number of accepted packets = 8022
Total number of accepted flits = 8022
Average accepted packet length = 1
Total in-flight flits = 29 (29 measured)
===== Time: 50000 =====
Class 0:
Minimum packet latency = 7
Average packet latency = 34.6138
Maximum packet latency = 149
Minimum network latency = 8
Average network latency = 35.6138
Maximum network latency = 150
Slowest packet = 39179
Minimum flit latency = 8
Average flit latency = 35.6156
Maximum flit latency = 150
Slowest flit = 39179
Minimum fragmentation = 0
Average fragmentation = 0
Maximum fragmentation = 0
Minimum injected packet rate = 0.04815 (at node 10)
Average injected packet rate = 0.0503
Maximum injected packet rate = 0.05345 (at node 14)
Minimum accepted packet rate = 0.04735 (at node 12)
Average accepted packet rate = 0.0502812
Maximum accepted packet rate = 0.053 (at node 9)
Minimum injected flit rate = 0.04815 (at node 10)
Average injected flit rate = 0.0503
Maximum injected flit rate = 0.05345 (at node 14)
Minimum accepted flit rate = 0.04735 (at node 12)
Average accepted flit rate = 0.0502812
Maximum accepted flit rate = 0.053 (at node 9)
Total number of injected packets = 16096
Total number of injected flits = 16096
Average injected packet length = 1
Total number of accepted packets = 16090
Total number of accepted flits = 16090
Average accepted packet length = 1
Total in-flight flits = 26 (26 measured)
===== Time: 60000 =====
Class 0:
Minimum packet latency = 7
Average packet latency = 34.8391
Maximum packet latency = 149
Minimum network latency = 8
Average network latency = 35.8391
Maximum network latency = 150
Slowest packet = 39179
Minimum flit latency = 8
Average flit latency = 35.8402
Maximum flit latency = 150
Slowest flit = 39179
Minimum fragmentation = 0
Average fragmentation = 0
Maximum fragmentation = 0
Minimum injected packet rate = 0.0482 (at node 10)
Average injected packet rate = 0.0501896
Maximum injected packet rate = 0.0528667 (at node 14)
Minimum accepted packet rate = 0.0479333 (at node 12)
Average accepted packet rate = 0.0501542
Maximum accepted packet rate = 0.0528667 (at node 9)
Minimum injected flit rate = 0.0482 (at node 10)
Average injected flit rate = 0.0501896
Maximum injected flit rate = 0.0528667 (at node 14)
Minimum accepted flit rate = 0.0479333 (at node 12)
Average accepted flit rate = 0.0501542
Maximum accepted flit rate = 0.0528667 (at node 9)
Total number of injected packets = 24091
Total number of injected flits = 24091
Average injected packet length = 1
Total number of accepted packets = 24074
Total number of accepted flits = 24074
Average accepted packet length = 1
Total in-flight flits = 37 (37 measured)
Draining remaining packets ...
Class 0:
Remaining flits: 47994 48002 48007 48013 48014 48016 48018 48020 48021 48022 [...] (21 flits)
Measured flits: 47994 48002 48007 48013 48014 48016 48018 48020 48021 48022 [...] (21 flits)
Class 0:
Remaining flits: 47994 48002 48007 48013 48016 48018 48020 48022 48023 48024 [...] (17 flits)
Measured flits: 47994 48002 48007 48013 48016 48018 48020 48022 48023 48024 [...] (17 flits)
Class 0:
Remaining flits: 47994 48022 48024 48029 48032 48033 (6 flits)
Measured flits: 47994 48022 48024 48029 48032 48033 (6 flits)
Class 0:
Remaining flits: 47994 48024 48033 (3 flits)
Measured flits: 47994 48024 48033 (3 flits)
Class 0:
Remaining flits: 47994 (1 flits)
Measured flits: 47994 (1 flits)
Class 0:
Remaining flits: 47994 (1 flits)
Measured flits: 47994 (1 flits)
Class 0:
Remaining flits: 47994 (1 flits)
Measured flits: 47994 (1 flits)
Class 0:
Remaining flits: 47994 (1 flits)
Measured flits: 47994 (1 flits)
Class 0:
Remaining flits: 47994 (1 flits)
Measured flits: 47994 (1 flits)
Class 0:
Remaining flits: 47994 (1 flits)
Measured flits: 47994 (1 flits)
Class 0:
Remaining flits: 47994 (1 flits)
Measured flits: 47994 (1 flits)
Class 0:
Remaining flits: 47994 (1 flits)
Measured flits: 47994 (1 flits)
Class 0:
Remaining flits: 47994 (1 flits)
Measured flits: 47994 (1 flits)
Class 0:
Remaining flits: 47994 (1 flits)
Measured flits: 47994 (1 flits)
Class 0:
Remaining flits: 47994 (1 flits)
Measured flits: 47994 (1 flits)
Class 0:
Remaining flits: 47994 (1 flits)
Measured flits: 47994 (1 flits)
Class 0:
Remaining flits: 47994 (1 flits)
Measured flits: 47994 (1 flits)
Class 0:
Remaining flits: 47994 (1 flits)
Measured flits: 47994 (1 flits)
Class 0:
Remaining flits: 47994 (1 flits)
Measured flits: 47994 (1 flits)
Class 0:
Remaining flits: 47994 (1 flits)
Measured flits: 47994 (1 flits)
Class 0:
Remaining flits: 47994 (1 flits)
Measured flits: 47994 (1 flits)
Class 0:
Remaining flits: 47994 (1 flits)
Measured flits: 47994 (1 flits)
Class 0:
Remaining flits: 47994 (1 flits)
Measured flits: 47994 (1 flits)
Class 0:
Remaining flits: 47994 (1 flits)
Measured flits: 47994 (1 flits)
Class 0:
Remaining flits: 47994 (1 flits)
Measured flits: 47994 (1 flits)
Class 0:
Remaining flits: 47994 (1 flits)
Measured flits: 47994 (1 flits)
Class 0:
Remaining flits: 47994 (1 flits)
Measured flits: 47994 (1 flits)
Class 0:
Remaining flits: 47994 (1 flits)
Measured flits: 47994 (1 flits)
Class 0:
Remaining flits: 47994 (1 flits)
Measured flits: 47994 (1 flits)
Class 0:
Remaining flits: 47994 (1 flits)
Measured flits: 47994 (1 flits)
Class 0:
Remaining flits: 47994 (1 flits)
Measured flits: 47994 (1 flits)
Class 0:
Remaining flits: 47994 (1 flits)
Measured flits: 47994 (1 flits)
Class 0:
Remaining flits: 47994 (1 flits)
Measured flits: 47994 (1 flits)
Class 0:
Remaining flits: 47994 (1 flits)
Measured flits: 47994 (1 flits)
Class 0:
Remaining flits: 47994 (1 flits)
Measured flits: 47994 (1 flits)
Class 0:
Remaining flits: 47994 (1 flits)
Measured flits: 47994 (1 flits)
Class 0:
Remaining flits: 47994 (1 flits)
Measured flits: 47994 (1 flits)
Class 0:
Remaining flits: 47994 (1 flits)
Measured flits: 47994 (1 flits)
Class 0:
Remaining flits: 47994 (1 flits)
Measured flits: 47994 (1 flits)
Class 0:
Remaining flits: 47994 (1 flits)
Measured flits: 47994 (1 flits)
Class 0:
Remaining flits: 47994 (1 flits)
Measured flits: 47994 (1 flits)
Class 0:
Remaining flits: 47994 (1 flits)
Measured flits: 47994 (1 flits)
Class 0:
Remaining flits: 47994 (1 flits)
Measured flits: 47994 (1 flits)
Class 0:
Remaining flits: 47994 (1 flits)
Measured flits: 47994 (1 flits)
Class 0:
Remaining flits: 47994 (1 flits)
Measured flits: 47994 (1 flits)
Class 0:
Remaining flits: 47994 (1 flits)
Measured flits: 47994 (1 flits)
Class 0:
Remaining flits: 47994 (1 flits)
Measured flits: 47994 (1 flits)
Class 0:
Remaining flits: 47994 (1 flits)
Measured flits: 47994 (1 flits)
Class 0:
Remaining flits: 47994 (1 flits)
Measured flits: 47994 (1 flits)
Class 0:
Remaining flits: 47994 (1 flits)
Measured flits: 47994 (1 flits)
Class 0:
Remaining flits: 47994 (1 flits)
Measured flits: 47994 (1 flits)
Class 0:
Remaining flits: 47994 (1 flits)
Measured flits: 47994 (1 flits)
Class 0:
Remaining flits: 47994 (1 flits)
Measured flits: 47994 (1 flits)
Class 0:
Remaining flits: 47994 (1 flits)
Measured flits: 47994 (1 flits)
Class 0:
Remaining flits: 47994 (1 flits)
Measured flits: 47994 (1 flits)
Class 0:
Remaining flits: 47994 (1 flits)
Measured flits: 47994 (1 flits)
Class 0:
Remaining flits: 47994 (1 flits)
Measured flits: 47994 (1 flits)
Class 0:
Remaining flits: 47994 (1 flits)
Measured flits: 47994 (1 flits)
Class 0:
Remaining flits: 47994 (1 flits)
Measured flits: 47994 (1 flits)
Class 0:
Remaining flits: 47994 (1 flits)
Measured flits: 47994 (1 flits)
Class 0:
Remaining flits: 47994 (1 flits)
Measured flits: 47994 (1 flits)
Class 0:
Remaining flits: 47994 (1 flits)
Measured flits: 47994 (1 flits)
Class 0:
Remaining flits: 47994 (1 flits)
Measured flits: 47994 (1 flits)
Class 0:
Remaining flits: 47994 (1 flits)
Measured flits: 47994 (1 flits)
Class 0:
Remaining flits: 47994 (1 flits)
Measured flits: 47994 (1 flits)
Class 0:
Remaining flits: 47994 (1 flits)
Measured flits: 47994 (1 flits)
Class 0:
Remaining flits: 47994 (1 flits)
Measured flits: 47994 (1 flits)
Class 0:
Remaining flits: 47994 (1 flits)
Measured flits: 47994 (1 flits)
Class 0:
Remaining flits: 47994 (1 flits)
Measured flits: 47994 (1 flits)
Class 0:
Remaining flits: 47994 (1 flits)
Measured flits: 47994 (1 flits)
Class 0:
Remaining flits: 47994 (1 flits)
Measured flits: 47994 (1 flits)
Class 0:
Remaining flits: 47994 (1 flits)
Measured flits: 47994 (1 flits)
Class 0:
Remaining flits: 47994 (1 flits)
Measured flits: 47994 (1 flits)
Class 0:
Remaining flits: 47994 (1 flits)
Measured flits: 47994 (1 flits)
Class 0:
Remaining flits: 47994 (1 flits)
Measured flits: 47994 (1 flits)
Class 0:
Remaining flits: 47994 (1 flits)
Measured flits: 47994 (1 flits)
Class 0:
Remaining flits: 47994 (1 flits)
Measured flits: 47994 (1 flits)
Class 0:
Remaining flits: 47994 (1 flits)
Measured flits: 47994 (1 flits)
Class 0:
Remaining flits: 47994 (1 flits)
Measured flits: 47994 (1 flits)
Class 0:
Remaining flits: 47994 (1 flits)
Measured flits: 47994 (1 flits)
Class 0:
Remaining flits: 47994 (1 flits)
Measured flits: 47994 (1 flits)
Class 0:
Remaining flits: 47994 (1 flits)
Measured flits: 47994 (1 flits)
Class 0:
Remaining flits: 47994 (1 flits)
Measured flits: 47994 (1 flits)
Class 0:
Remaining flits: 47994 (1 flits)
Measured flits: 47994 (1 flits)
Class 0:
Remaining flits: 47994 (1 flits)
Measured flits: 47994 (1 flits)
Class 0:
Remaining flits: 47994 (1 flits)
Measured flits: 47994 (1 flits)
Class 0:
Remaining flits: 47994 (1 flits)
Measured flits: 47994 (1 flits)
Class 0:
Remaining flits: 47994 (1 flits)
Measured flits: 47994 (1 flits)
Class 0:
Remaining flits: 47994 (1 flits)
Measured flits: 47994 (1 flits)
Class 0:
Remaining flits: 47994 (1 flits)
Measured flits: 47994 (1 flits)
Class 0:
Remaining flits: 47994 (1 flits)
Measured flits: 47994 (1 flits)
Class 0:
Remaining flits: 47994 (1 flits)
Measured flits: 47994 (1 flits)
Class 0:
Remaining flits: 47994 (1 flits)
Measured flits: 47994 (1 flits)
Class 0:
Remaining flits: 47994 (1 flits)
Measured flits: 47994 (1 flits)
Class 0:
Remaining flits: 47994 (1 flits)
Measured flits: 47994 (1 flits)
Class 0:
Remaining flits: 47994 (1 flits)
Measured flits: 47994 (1 flits)
Class 0:
Remaining flits: 47994 (1 flits)
Measured flits: 47994 (1 flits)
Class 0:
Remaining flits: 47994 (1 flits)
Measured flits: 47994 (1 flits)
Class 0:
Remaining flits: 47994 (1 flits)
Measured flits: 47994 (1 flits)
Class 0:
Remaining flits: 47994 (1 flits)
Measured flits: 47994 (1 flits)
Class 0:
Remaining flits: 47994 (1 flits)
Measured flits: 47994 (1 flits)
Time taken is 61000 cycles
====== Traffic class 0 ======

Total number of flits generated = 48037, changed lanes = 47667
Overall minimum packet latency = 7 (1 samples)
Overall average packet latency = 34.8466 (1 samples)
Overall maximum packet latency = 149 (1 samples)
Overall minimum network latency = 8 (1 samples)
Overall average network latency = 35.8466 (1 samples)
Overall maximum network latency = 150 (1 samples)
Overall minimum flit latency = 8 (1 samples)
Overall average flit latency = 35.8476 (1 samples)
Overall maximum flit latency = 150 (1 samples)
Overall minimum fragmentation = 0 (1 samples)
Overall average fragmentation = 0 (1 samples)
Overall maximum fragmentation = 0 (1 samples)
Overall minimum injected packet rate = 0.0482 (1 samples)
Overall average injected packet rate = 0.0501896 (1 samples)
Overall maximum injected packet rate = 0.0528667 (1 samples)
Overall minimum accepted packet rate = 0.0479333 (1 samples)
Overall average accepted packet rate = 0.0501542 (1 samples)
Overall maximum accepted packet rate = 0.0528667 (1 samples)
Overall minimum injected flit rate = 0.0482 (1 samples)
Overall average injected flit rate = 0.0501896 (1 samples)
Overall maximum injected flit rate = 0.0528667 (1 samples)
Overall minimum accepted flit rate = 0.0479333 (1 samples)
Overall average accepted flit rate = 0.0501542 (1 samples)
Overall maximum accepted flit rate = 0.0528667 (1 samples)
Overall average injected packet size = 1 (1 samples)
Overall average accepted packet size = 1 (1 samples)
Overall average hops = 2.99037 (1 samples)
Overall throughput of the network (flits/cycle) = 1.6012
Overall throughput of the network (packets/cycle) = 1.6012
Total run time 73.9278
