make: Nothing to be done for 'all'.
Master: Running timer....
Master: Running SRC....
BEGIN Configuration File: ./examples/bitrev
// Topology

topology = mesh;
k = 4;
n = 2;

// Routing
routing_function = min_adapt;

// Flow control
num_vcs     = 4;
vc_buf_size = 4;
wait_for_tail_credit = 0;

// Router architecture
vc_allocator = islip;
sw_allocator = islip;
alloc_iters  = 1;

credit_delay   = 1;
routing_delay  = 1;
vc_alloc_delay = 1;
sw_alloc_delay = 1;

input_speedup     = 1;
output_speedup    = 1;
internal_speedup  = 1.0;

vc_busy_when_full = 0;

// Traffic
traffic = shuffle;
packet_size = 1;

// Simulation
sim_type = throughput;

injection_rate = 0.05;

END Configuration File: ./examples/bitrev
===== Time: 10000 =====
Class 0:
Minimum packet latency = 8
Average packet latency = 35.7022
Maximum packet latency = 128
Minimum network latency = 9
Average network latency = 36.7022
Maximum network latency = 129
Slowest packet = 866
Minimum flit latency = 9
Average flit latency = 36.7022
Maximum flit latency = 129
Slowest flit = 866
Minimum fragmentation = 0
Average fragmentation = 0
Maximum fragmentation = 0
Minimum injected packet rate = 0.0458 (at node 0)
Average injected packet rate = 0.0494687
Maximum injected packet rate = 0.0515 (at node 12)
Minimum accepted packet rate = 0.0458 (at node 0)
Average accepted packet rate = 0.0493188
Maximum accepted packet rate = 0.0513 (at node 9)
Minimum injected flit rate = 0.0458 (at node 0)
Average injected flit rate = 0.0494687
Maximum injected flit rate = 0.0515 (at node 12)
Minimum accepted flit rate = 0.0458 (at node 0)
Average accepted flit rate = 0.0493188
Maximum accepted flit rate = 0.0513 (at node 9)
Total number of injected packets = 7915
Total number of injected flits = 7915
Average injected packet length = 1
Total number of accepted packets = 7891
Total number of accepted flits = 7891
Average accepted packet length = 1
Total in-flight flits = 24 (0 measured)
===== Time: 20000 =====
Class 0:
Minimum packet latency = 8
Average packet latency = 35.3737
Maximum packet latency = 176
Minimum network latency = 9
Average network latency = 36.3737
Maximum network latency = 177
Slowest packet = 11360
Minimum flit latency = 9
Average flit latency = 36.3737
Maximum flit latency = 177
Slowest flit = 11360
Minimum fragmentation = 0
Average fragmentation = 0
Maximum fragmentation = 0
Minimum injected packet rate = 0.0483 (at node 8)
Average injected packet rate = 0.0500375
Maximum injected packet rate = 0.0526 (at node 12)
Minimum accepted packet rate = 0.0481 (at node 1)
Average accepted packet rate = 0.0499375
Maximum accepted packet rate = 0.05245 (at node 9)
Minimum injected flit rate = 0.0483 (at node 8)
Average injected flit rate = 0.0500375
Maximum injected flit rate = 0.0526 (at node 12)
Minimum accepted flit rate = 0.0481 (at node 1)
Average accepted flit rate = 0.0499375
Maximum accepted flit rate = 0.05245 (at node 9)
Total number of injected packets = 16012
Total number of injected flits = 16012
Average injected packet length = 1
Total number of accepted packets = 15980
Total number of accepted flits = 15980
Average accepted packet length = 1
Total in-flight flits = 32 (0 measured)
===== Time: 30000 =====
Class 0:
Minimum packet latency = 8
Average packet latency = 35.4149
Maximum packet latency = 120
Minimum network latency = 9
Average network latency = 36.4149
Maximum network latency = 121
Slowest packet = 21503
Minimum flit latency = 9
Average flit latency = 36.4149
Maximum flit latency = 121
Slowest flit = 21491
Minimum fragmentation = 0
Average fragmentation = 0
Maximum fragmentation = 0
Minimum injected packet rate = 0.045 (at node 15)
Average injected packet rate = 0.0495875
Maximum injected packet rate = 0.0541 (at node 13)
Minimum accepted packet rate = 0.045 (at node 15)
Average accepted packet rate = 0.0496625
Maximum accepted packet rate = 0.0544 (at node 11)
Minimum injected flit rate = 0.045 (at node 15)
Average injected flit rate = 0.0495875
Maximum injected flit rate = 0.0541 (at node 13)
Minimum accepted flit rate = 0.045 (at node 15)
Average accepted flit rate = 0.0496625
Maximum accepted flit rate = 0.0544 (at node 11)
Total number of injected packets = 7934
Total number of injected flits = 7934
Average injected packet length = 1
Total number of accepted packets = 7946
Total number of accepted flits = 7946
Average accepted packet length = 1
Total in-flight flits = 20 (0 measured)
===== Time: 40000 =====
Class 0:
Minimum packet latency = 8
Average packet latency = 35.1306
Maximum packet latency = 134
Minimum network latency = 9
Average network latency = 36.1306
Maximum network latency = 135
Slowest packet = 31565
Minimum flit latency = 9
Average flit latency = 36.1393
Maximum flit latency = 135
Slowest flit = 31565
Minimum fragmentation = 0
Average fragmentation = 0
Maximum fragmentation = 0
Minimum injected packet rate = 0.0473 (at node 6)
Average injected packet rate = 0.0501938
Maximum injected packet rate = 0.0543 (at node 14)
Minimum accepted packet rate = 0.0471 (at node 12)
Average accepted packet rate = 0.0501438
Maximum accepted packet rate = 0.0542 (at node 13)
Minimum injected flit rate = 0.0473 (at node 6)
Average injected flit rate = 0.0501938
Maximum injected flit rate = 0.0543 (at node 14)
Minimum accepted flit rate = 0.0471 (at node 12)
Average accepted flit rate = 0.0501438
Maximum accepted flit rate = 0.0542 (at node 13)
Total number of injected packets = 8031
Total number of injected flits = 8031
Average injected packet length = 1
Total number of accepted packets = 8023
Total number of accepted flits = 8023
Average accepted packet length = 1
Total in-flight flits = 28 (28 measured)
===== Time: 50000 =====
Class 0:
Minimum packet latency = 8
Average packet latency = 35.1574
Maximum packet latency = 134
Minimum network latency = 9
Average network latency = 36.1574
Maximum network latency = 135
Slowest packet = 31565
Minimum flit latency = 9
Average flit latency = 36.1618
Maximum flit latency = 135
Slowest flit = 31565
Minimum fragmentation = 0
Average fragmentation = 0
Maximum fragmentation = 0
Minimum injected packet rate = 0.04815 (at node 10)
Average injected packet rate = 0.0503
Maximum injected packet rate = 0.05345 (at node 14)
Minimum accepted packet rate = 0.0482 (at node 5)
Average accepted packet rate = 0.0502875
Maximum accepted packet rate = 0.0535 (at node 13)
Minimum injected flit rate = 0.04815 (at node 10)
Average injected flit rate = 0.0503
Maximum injected flit rate = 0.05345 (at node 14)
Minimum accepted flit rate = 0.0482 (at node 5)
Average accepted flit rate = 0.0502875
Maximum accepted flit rate = 0.0535 (at node 13)
Total number of injected packets = 16096
Total number of injected flits = 16096
Average injected packet length = 1
Total number of accepted packets = 16092
Total number of accepted flits = 16092
Average accepted packet length = 1
Total in-flight flits = 24 (24 measured)
===== Time: 60000 =====
Class 0:
Minimum packet latency = 8
Average packet latency = 35.3159
Maximum packet latency = 134
Minimum network latency = 9
Average network latency = 36.3159
Maximum network latency = 135
Slowest packet = 31565
Minimum flit latency = 9
Average flit latency = 36.3187
Maximum flit latency = 135
Slowest flit = 31565
Minimum fragmentation = 0
Average fragmentation = 0
Maximum fragmentation = 0
Minimum injected packet rate = 0.0482 (at node 10)
Average injected packet rate = 0.0501896
Maximum injected packet rate = 0.0528667 (at node 14)
Minimum accepted packet rate = 0.0482 (at node 5)
Average accepted packet rate = 0.0501562
Maximum accepted packet rate = 0.0528667 (at node 13)
Minimum injected flit rate = 0.0482 (at node 10)
Average injected flit rate = 0.0501896
Maximum injected flit rate = 0.0528667 (at node 14)
Minimum accepted flit rate = 0.0482 (at node 5)
Average accepted flit rate = 0.0501562
Maximum accepted flit rate = 0.0528667 (at node 13)
Total number of injected packets = 24091
Total number of injected flits = 24091
Average injected packet length = 1
Total number of accepted packets = 24075
Total number of accepted flits = 24075
Average accepted packet length = 1
Total in-flight flits = 36 (36 measured)
Draining remaining packets ...
Class 0:
Remaining flits: 47988 47990 47994 47998 48000 48006 48007 48008 48009 48010 [...] (26 flits)
Measured flits: 47988 47990 47994 47998 48000 48006 48007 48008 48009 48010 [...] (26 flits)
Class 0:
Remaining flits: 47994 47998 48000 48006 48007 48008 48009 48010 48016 48019 [...] (19 flits)
Measured flits: 47994 47998 48000 48006 48007 48008 48009 48010 48016 48019 [...] (19 flits)
Class 0:
Remaining flits: 47994 48000 48006 48010 48032 48034 48035 48036 (8 flits)
Measured flits: 47994 48000 48006 48010 48032 48034 48035 48036 (8 flits)
Class 0:
Remaining flits: 47994 48006 48034 48036 (4 flits)
Measured flits: 47994 48006 48034 48036 (4 flits)
Class 0:
Remaining flits: 47994 48036 (2 flits)
Measured flits: 47994 48036 (2 flits)
Class 0:
Remaining flits: 47994 (1 flits)
Measured flits: 47994 (1 flits)
Class 0:
Remaining flits: 47994 (1 flits)
Measured flits: 47994 (1 flits)
Class 0:
Remaining flits: 47994 (1 flits)
Measured flits: 47994 (1 flits)
Class 0:
Remaining flits: 47994 (1 flits)
Measured flits: 47994 (1 flits)
Class 0:
Remaining flits: 47994 (1 flits)
Measured flits: 47994 (1 flits)
Class 0:
Remaining flits: 47994 (1 flits)
Measured flits: 47994 (1 flits)
Class 0:
Remaining flits: 47994 (1 flits)
Measured flits: 47994 (1 flits)
Class 0:
Remaining flits: 47994 (1 flits)
Measured flits: 47994 (1 flits)
Class 0:
Remaining flits: 47994 (1 flits)
Measured flits: 47994 (1 flits)
Class 0:
Remaining flits: 47994 (1 flits)
Measured flits: 47994 (1 flits)
Class 0:
Remaining flits: 47994 (1 flits)
Measured flits: 47994 (1 flits)
Class 0:
Remaining flits: 47994 (1 flits)
Measured flits: 47994 (1 flits)
Class 0:
Remaining flits: 47994 (1 flits)
Measured flits: 47994 (1 flits)
Class 0:
Remaining flits: 47994 (1 flits)
Measured flits: 47994 (1 flits)
Class 0:
Remaining flits: 47994 (1 flits)
Measured flits: 47994 (1 flits)
Class 0:
Remaining flits: 47994 (1 flits)
Measured flits: 47994 (1 flits)
Class 0:
Remaining flits: 47994 (1 flits)
Measured flits: 47994 (1 flits)
Class 0:
Remaining flits: 47994 (1 flits)
Measured flits: 47994 (1 flits)
Class 0:
Remaining flits: 47994 (1 flits)
Measured flits: 47994 (1 flits)
Class 0:
Remaining flits: 47994 (1 flits)
Measured flits: 47994 (1 flits)
Class 0:
Remaining flits: 47994 (1 flits)
Measured flits: 47994 (1 flits)
Class 0:
Remaining flits: 47994 (1 flits)
Measured flits: 47994 (1 flits)
Class 0:
Remaining flits: 47994 (1 flits)
Measured flits: 47994 (1 flits)
Class 0:
Remaining flits: 47994 (1 flits)
Measured flits: 47994 (1 flits)
Class 0:
Remaining flits: 47994 (1 flits)
Measured flits: 47994 (1 flits)
Class 0:
Remaining flits: 47994 (1 flits)
Measured flits: 47994 (1 flits)
Class 0:
Remaining flits: 47994 (1 flits)
Measured flits: 47994 (1 flits)
Class 0:
Remaining flits: 47994 (1 flits)
Measured flits: 47994 (1 flits)
Class 0:
Remaining flits: 47994 (1 flits)
Measured flits: 47994 (1 flits)
Class 0:
Remaining flits: 47994 (1 flits)
Measured flits: 47994 (1 flits)
Class 0:
Remaining flits: 47994 (1 flits)
Measured flits: 47994 (1 flits)
Class 0:
Remaining flits: 47994 (1 flits)
Measured flits: 47994 (1 flits)
Class 0:
Remaining flits: 47994 (1 flits)
Measured flits: 47994 (1 flits)
Class 0:
Remaining flits: 47994 (1 flits)
Measured flits: 47994 (1 flits)
Class 0:
Remaining flits: 47994 (1 flits)
Measured flits: 47994 (1 flits)
Class 0:
Remaining flits: 47994 (1 flits)
Measured flits: 47994 (1 flits)
Class 0:
Remaining flits: 47994 (1 flits)
Measured flits: 47994 (1 flits)
Class 0:
Remaining flits: 47994 (1 flits)
Measured flits: 47994 (1 flits)
Class 0:
Remaining flits: 47994 (1 flits)
Measured flits: 47994 (1 flits)
Class 0:
Remaining flits: 47994 (1 flits)
Measured flits: 47994 (1 flits)
Class 0:
Remaining flits: 47994 (1 flits)
Measured flits: 47994 (1 flits)
Class 0:
Remaining flits: 47994 (1 flits)
Measured flits: 47994 (1 flits)
Class 0:
Remaining flits: 47994 (1 flits)
Measured flits: 47994 (1 flits)
Class 0:
Remaining flits: 47994 (1 flits)
Measured flits: 47994 (1 flits)
Class 0:
Remaining flits: 47994 (1 flits)
Measured flits: 47994 (1 flits)
Class 0:
Remaining flits: 47994 (1 flits)
Measured flits: 47994 (1 flits)
Class 0:
Remaining flits: 47994 (1 flits)
Measured flits: 47994 (1 flits)
Class 0:
Remaining flits: 47994 (1 flits)
Measured flits: 47994 (1 flits)
Class 0:
Remaining flits: 47994 (1 flits)
Measured flits: 47994 (1 flits)
Class 0:
Remaining flits: 47994 (1 flits)
Measured flits: 47994 (1 flits)
Class 0:
Remaining flits: 47994 (1 flits)
Measured flits: 47994 (1 flits)
Class 0:
Remaining flits: 47994 (1 flits)
Measured flits: 47994 (1 flits)
Class 0:
Remaining flits: 47994 (1 flits)
Measured flits: 47994 (1 flits)
Class 0:
Remaining flits: 47994 (1 flits)
Measured flits: 47994 (1 flits)
Class 0:
Remaining flits: 47994 (1 flits)
Measured flits: 47994 (1 flits)
Class 0:
Remaining flits: 47994 (1 flits)
Measured flits: 47994 (1 flits)
Class 0:
Remaining flits: 47994 (1 flits)
Measured flits: 47994 (1 flits)
Class 0:
Remaining flits: 47994 (1 flits)
Measured flits: 47994 (1 flits)
Class 0:
Remaining flits: 47994 (1 flits)
Measured flits: 47994 (1 flits)
Class 0:
Remaining flits: 47994 (1 flits)
Measured flits: 47994 (1 flits)
Class 0:
Remaining flits: 47994 (1 flits)
Measured flits: 47994 (1 flits)
Class 0:
Remaining flits: 47994 (1 flits)
Measured flits: 47994 (1 flits)
Class 0:
Remaining flits: 47994 (1 flits)
Measured flits: 47994 (1 flits)
Class 0:
Remaining flits: 47994 (1 flits)
Measured flits: 47994 (1 flits)
Class 0:
Remaining flits: 47994 (1 flits)
Measured flits: 47994 (1 flits)
Class 0:
Remaining flits: 47994 (1 flits)
Measured flits: 47994 (1 flits)
Class 0:
Remaining flits: 47994 (1 flits)
Measured flits: 47994 (1 flits)
Class 0:
Remaining flits: 47994 (1 flits)
Measured flits: 47994 (1 flits)
Class 0:
Remaining flits: 47994 (1 flits)
Measured flits: 47994 (1 flits)
Class 0:
Remaining flits: 47994 (1 flits)
Measured flits: 47994 (1 flits)
Class 0:
Remaining flits: 47994 (1 flits)
Measured flits: 47994 (1 flits)
Class 0:
Remaining flits: 47994 (1 flits)
Measured flits: 47994 (1 flits)
Class 0:
Remaining flits: 47994 (1 flits)
Measured flits: 47994 (1 flits)
Class 0:
Remaining flits: 47994 (1 flits)
Measured flits: 47994 (1 flits)
Class 0:
Remaining flits: 47994 (1 flits)
Measured flits: 47994 (1 flits)
Class 0:
Remaining flits: 47994 (1 flits)
Measured flits: 47994 (1 flits)
Class 0:
Remaining flits: 47994 (1 flits)
Measured flits: 47994 (1 flits)
Class 0:
Remaining flits: 47994 (1 flits)
Measured flits: 47994 (1 flits)
Class 0:
Remaining flits: 47994 (1 flits)
Measured flits: 47994 (1 flits)
Class 0:
Remaining flits: 47994 (1 flits)
Measured flits: 47994 (1 flits)
Class 0:
Remaining flits: 47994 (1 flits)
Measured flits: 47994 (1 flits)
Class 0:
Remaining flits: 47994 (1 flits)
Measured flits: 47994 (1 flits)
Class 0:
Remaining flits: 47994 (1 flits)
Measured flits: 47994 (1 flits)
Class 0:
Remaining flits: 47994 (1 flits)
Measured flits: 47994 (1 flits)
Class 0:
Remaining flits: 47994 (1 flits)
Measured flits: 47994 (1 flits)
Class 0:
Remaining flits: 47994 (1 flits)
Measured flits: 47994 (1 flits)
Class 0:
Remaining flits: 47994 (1 flits)
Measured flits: 47994 (1 flits)
Class 0:
Remaining flits: 47994 (1 flits)
Measured flits: 47994 (1 flits)
Class 0:
Remaining flits: 47994 (1 flits)
Measured flits: 47994 (1 flits)
Class 0:
Remaining flits: 47994 (1 flits)
Measured flits: 47994 (1 flits)
Class 0:
Remaining flits: 47994 (1 flits)
Measured flits: 47994 (1 flits)
Class 0:
Remaining flits: 47994 (1 flits)
Measured flits: 47994 (1 flits)
Class 0:
Remaining flits: 47994 (1 flits)
Measured flits: 47994 (1 flits)
Class 0:
Remaining flits: 47994 (1 flits)
Measured flits: 47994 (1 flits)
Class 0:
Remaining flits: 47994 (1 flits)
Measured flits: 47994 (1 flits)
Class 0:
Remaining flits: 47994 (1 flits)
Measured flits: 47994 (1 flits)
Time taken is 61000 cycles
====== Traffic class 0 ======

Total number of flits generated = 48037, changed lanes = 45014
Overall minimum packet latency = 8 (1 samples)
Overall average packet latency = 35.3293 (1 samples)
Overall maximum packet latency = 134 (1 samples)
Overall minimum network latency = 9 (1 samples)
Overall average network latency = 36.3293 (1 samples)
Overall maximum network latency = 135 (1 samples)
Overall minimum flit latency = 9 (1 samples)
Overall average flit latency = 36.3321 (1 samples)
Overall maximum flit latency = 135 (1 samples)
Overall minimum fragmentation = 0 (1 samples)
Overall average fragmentation = 0 (1 samples)
Overall maximum fragmentation = 0 (1 samples)
Overall minimum injected packet rate = 0.0482 (1 samples)
Overall average injected packet rate = 0.0501896 (1 samples)
Overall maximum injected packet rate = 0.0528667 (1 samples)
Overall minimum accepted packet rate = 0.0482 (1 samples)
Overall average accepted packet rate = 0.0501562 (1 samples)
Overall maximum accepted packet rate = 0.0528667 (1 samples)
Overall minimum injected flit rate = 0.0482 (1 samples)
Overall average injected flit rate = 0.0501896 (1 samples)
Overall maximum injected flit rate = 0.0528667 (1 samples)
Overall minimum accepted flit rate = 0.0482 (1 samples)
Overall average accepted flit rate = 0.0501562 (1 samples)
Overall maximum accepted flit rate = 0.0528667 (1 samples)
Overall average injected packet size = 1 (1 samples)
Overall average accepted packet size = 1 (1 samples)
Overall average hops = 2.99651 (1 samples)
Overall throughput of the network (flits/cycle) = 1.6012
Overall throughput of the network (packets/cycle) = 1.6012
Total run time 80.3395
