Master: Running timer....
Master: Running SRC....
BEGIN Configuration File: ./examples/bitrev
// Topology

topology = torus;
k = 4;
n = 2;

// Routing
routing_function = dim_order;

// Flow control
num_vcs     = 4;
vc_buf_size = 8;
wait_for_tail_credit = 0;

// Router architecture
vc_allocator = islip;
sw_allocator = islip;
alloc_iters  = 1;

credit_delay   = 1;
routing_delay  = 1;
vc_alloc_delay = 1;
sw_alloc_delay = 1;

input_speedup     = 1;
output_speedup    = 1;
internal_speedup  = 1.0;

vc_busy_when_full = 0;

// Traffic
traffic = uniform;
packet_size = 1;

// Simulation
sim_type = throughput;

injection_rate = 0.05;

END Configuration File: ./examples/bitrev
===== Time: 1000 =====
Class 0:
Minimum packet latency = 7
Average packet latency = 27.8047
Maximum packet latency = 84
Minimum network latency = 8
Average network latency = 28.8047
Maximum network latency = 85
Slowest packet = 293
Minimum flit latency = 8
Average flit latency = 28.8047
Maximum flit latency = 85
Slowest flit = 293
Minimum fragmentation = 0
Average fragmentation = 0
Maximum fragmentation = 0
Minimum injected packet rate = 0.041 (at node 5)
Average injected packet rate = 0.048875
Maximum injected packet rate = 0.054 (at node 1)
Minimum accepted packet rate = 0.039 (at node 6)
Average accepted packet rate = 0.0476875
Maximum accepted packet rate = 0.059 (at node 5)
Minimum injected flit rate = 0.041 (at node 5)
Average injected flit rate = 0.048875
Maximum injected flit rate = 0.054 (at node 1)
Minimum accepted flit rate = 0.039 (at node 6)
Average accepted flit rate = 0.0476875
Maximum accepted flit rate = 0.059 (at node 5)
Total number of injected packets = 782
Total number of injected flits = 782
Average injected packet length = 1
Total number of accepted packets = 763
Total number of accepted flits = 763
Average accepted packet length = 1
Total in-flight flits = 19 (0 measured)
===== Time: 2000 =====
Class 0:
Minimum packet latency = 7
Average packet latency = 28.0419
Maximum packet latency = 84
Minimum network latency = 8
Average network latency = 29.0419
Maximum network latency = 85
Slowest packet = 293
Minimum flit latency = 8
Average flit latency = 29.0419
Maximum flit latency = 85
Slowest flit = 293
Minimum fragmentation = 0
Average fragmentation = 0
Maximum fragmentation = 0
Minimum injected packet rate = 0.0395 (at node 8)
Average injected packet rate = 0.049125
Maximum injected packet rate = 0.057 (at node 12)
Minimum accepted packet rate = 0.0435 (at node 14)
Average accepted packet rate = 0.0484687
Maximum accepted packet rate = 0.0565 (at node 12)
Minimum injected flit rate = 0.0395 (at node 8)
Average injected flit rate = 0.049125
Maximum injected flit rate = 0.057 (at node 12)
Minimum accepted flit rate = 0.0435 (at node 14)
Average accepted flit rate = 0.0484687
Maximum accepted flit rate = 0.0565 (at node 12)
Total number of injected packets = 1572
Total number of injected flits = 1572
Average injected packet length = 1
Total number of accepted packets = 1551
Total number of accepted flits = 1551
Average accepted packet length = 1
Total in-flight flits = 21 (0 measured)
===== Time: 3000 =====
Class 0:
Minimum packet latency = 7
Average packet latency = 29.7186
Maximum packet latency = 100
Minimum network latency = 8
Average network latency = 30.7186
Maximum network latency = 101
Slowest packet = 1993
Minimum flit latency = 8
Average flit latency = 30.7186
Maximum flit latency = 101
Slowest flit = 1993
Minimum fragmentation = 0
Average fragmentation = 0
Maximum fragmentation = 0
Minimum injected packet rate = 0.045 (at node 4)
Average injected packet rate = 0.0518125
Maximum injected packet rate = 0.059 (at node 1)
Minimum accepted packet rate = 0.042 (at node 2)
Average accepted packet rate = 0.0513125
Maximum accepted packet rate = 0.062 (at node 11)
Minimum injected flit rate = 0.045 (at node 4)
Average injected flit rate = 0.0518125
Maximum injected flit rate = 0.059 (at node 1)
Minimum accepted flit rate = 0.042 (at node 2)
Average accepted flit rate = 0.0513125
Maximum accepted flit rate = 0.062 (at node 11)
Total number of injected packets = 829
Total number of injected flits = 829
Average injected packet length = 1
Total number of accepted packets = 821
Total number of accepted flits = 821
Average accepted packet length = 1
Total in-flight flits = 29 (0 measured)
===== Time: 4000 =====
Class 0:
Minimum packet latency = 7
Average packet latency = 29.3112
Maximum packet latency = 136
Minimum network latency = 8
Average network latency = 30.3112
Maximum network latency = 137
Slowest packet = 2673
Minimum flit latency = 8
Average flit latency = 30.6003
Maximum flit latency = 137
Slowest flit = 2673
Minimum fragmentation = 0
Average fragmentation = 0
Maximum fragmentation = 0
Minimum injected packet rate = 0.035 (at node 0)
Average injected packet rate = 0.0480625
Maximum injected packet rate = 0.057 (at node 9)
Minimum accepted packet rate = 0.034 (at node 4)
Average accepted packet rate = 0.048
Maximum accepted packet rate = 0.057 (at node 11)
Minimum injected flit rate = 0.035 (at node 0)
Average injected flit rate = 0.0480625
Maximum injected flit rate = 0.057 (at node 9)
Minimum accepted flit rate = 0.034 (at node 4)
Average accepted flit rate = 0.048
Maximum accepted flit rate = 0.057 (at node 11)
Total number of injected packets = 769
Total number of injected flits = 769
Average injected packet length = 1
Total number of accepted packets = 768
Total number of accepted flits = 768
Average accepted packet length = 1
Total in-flight flits = 30 (30 measured)
===== Time: 5000 =====
Class 0:
Minimum packet latency = 7
Average packet latency = 29.5494
Maximum packet latency = 182
Minimum network latency = 8
Average network latency = 30.5494
Maximum network latency = 183
Slowest packet = 3572
Minimum flit latency = 8
Average flit latency = 30.6892
Maximum flit latency = 183
Slowest flit = 3572
Minimum fragmentation = 0
Average fragmentation = 0
Maximum fragmentation = 0
Minimum injected packet rate = 0.0365 (at node 0)
Average injected packet rate = 0.0476875
Maximum injected packet rate = 0.0575 (at node 9)
Minimum accepted packet rate = 0.039 (at node 4)
Average accepted packet rate = 0.0480625
Maximum accepted packet rate = 0.056 (at node 11)
Minimum injected flit rate = 0.0365 (at node 0)
Average injected flit rate = 0.0476875
Maximum injected flit rate = 0.0575 (at node 9)
Minimum accepted flit rate = 0.039 (at node 4)
Average accepted flit rate = 0.0480625
Maximum accepted flit rate = 0.056 (at node 11)
Total number of injected packets = 1526
Total number of injected flits = 1526
Average injected packet length = 1
Total number of accepted packets = 1538
Total number of accepted flits = 1538
Average accepted packet length = 1
Total in-flight flits = 17 (17 measured)
===== Time: 6000 =====
Class 0:
Minimum packet latency = 7
Average packet latency = 29.3928
Maximum packet latency = 182
Minimum network latency = 8
Average network latency = 30.3928
Maximum network latency = 183
Slowest packet = 3572
Minimum flit latency = 8
Average flit latency = 30.4875
Maximum flit latency = 183
Slowest flit = 3572
Minimum fragmentation = 0
Average fragmentation = 0
Maximum fragmentation = 0
Minimum injected packet rate = 0.041 (at node 0)
Average injected packet rate = 0.0481667
Maximum injected packet rate = 0.057 (at node 15)
Minimum accepted packet rate = 0.038 (at node 4)
Average accepted packet rate = 0.0483333
Maximum accepted packet rate = 0.0533333 (at node 11)
Minimum injected flit rate = 0.041 (at node 0)
Average injected flit rate = 0.0481667
Maximum injected flit rate = 0.057 (at node 15)
Minimum accepted flit rate = 0.038 (at node 4)
Average accepted flit rate = 0.0483333
Maximum accepted flit rate = 0.0533333 (at node 11)
Total number of injected packets = 2312
Total number of injected flits = 2312
Average injected packet length = 1
Total number of accepted packets = 2320
Total number of accepted flits = 2320
Average accepted packet length = 1
Total in-flight flits = 21 (21 measured)
===== Time: 7000 =====
Class 0:
Minimum packet latency = 7
Average packet latency = 29.8927
Maximum packet latency = 295
Minimum network latency = 8
Average network latency = 30.8927
Maximum network latency = 296
Slowest packet = 4602
Minimum flit latency = 8
Average flit latency = 30.958
Maximum flit latency = 296
Slowest flit = 4602
Minimum fragmentation = 0
Average fragmentation = 0
Maximum fragmentation = 0
Minimum injected packet rate = 0.04275 (at node 0)
Average injected packet rate = 0.0488906
Maximum injected packet rate = 0.054 (at node 15)
Minimum accepted packet rate = 0.04125 (at node 4)
Average accepted packet rate = 0.0490781
Maximum accepted packet rate = 0.0535 (at node 6)
Minimum injected flit rate = 0.04275 (at node 0)
Average injected flit rate = 0.0488906
Maximum injected flit rate = 0.054 (at node 15)
Minimum accepted flit rate = 0.04125 (at node 4)
Average accepted flit rate = 0.0490781
Maximum accepted flit rate = 0.0535 (at node 6)
Total number of injected packets = 3129
Total number of injected flits = 3129
Average injected packet length = 1
Total number of accepted packets = 3141
Total number of accepted flits = 3141
Average accepted packet length = 1
Total in-flight flits = 17 (17 measured)
Draining remaining packets ...
Class 0:
Remaining flits: 5507 5510 5512 5513 5518 5519 5523 5524 5525 5526 [...] (12 flits)
Measured flits: 5507 5510 5512 5513 5518 5519 5523 5524 5525 5526 [...] (12 flits)
Class 0:
Remaining flits: 5507 5510 5512 5523 5524 5525 5526 5527 5529 (9 flits)
Measured flits: 5507 5510 5512 5523 5524 5525 5526 5527 5529 (9 flits)
Class 0:
Remaining flits: 5510 5524 5525 5526 (4 flits)
Measured flits: 5510 5524 5525 5526 (4 flits)
Class 0:
Remaining flits: (0 flits)
Measured flits: (0 flits)
Class 0:
Remaining flits: (0 flits)
Measured flits: (0 flits)
Class 0:
Remaining flits: (0 flits)
Measured flits: (0 flits)
Class 0:
Remaining flits: (0 flits)
Measured flits: (0 flits)
Class 0:
Remaining flits: (0 flits)
Measured flits: (0 flits)
Class 0:
Remaining flits: (0 flits)
Measured flits: (0 flits)
Class 0:
Remaining flits: (0 flits)
Measured flits: (0 flits)
Class 0:
Remaining flits: (0 flits)
Measured flits: (0 flits)
Class 0:
Remaining flits: (0 flits)
Measured flits: (0 flits)
Class 0:
Remaining flits: (0 flits)
Measured flits: (0 flits)
Class 0:
Remaining flits: (0 flits)
Measured flits: (0 flits)
Class 0:
Remaining flits: (0 flits)
Measured flits: (0 flits)
Class 0:
Remaining flits: (0 flits)
Measured flits: (0 flits)
Class 0:
Remaining flits: (0 flits)
Measured flits: (0 flits)
Class 0:
Remaining flits: (0 flits)
Measured flits: (0 flits)
Class 0:
Remaining flits: (0 flits)
Measured flits: (0 flits)
Class 0:
Remaining flits: (0 flits)
Measured flits: (0 flits)
Class 0:
Remaining flits: (0 flits)
Measured flits: (0 flits)
Class 0:
Remaining flits: (0 flits)
Measured flits: (0 flits)
Class 0:
Remaining flits: (0 flits)
Measured flits: (0 flits)
Class 0:
Remaining flits: (0 flits)
Measured flits: (0 flits)
Class 0:
Remaining flits: (0 flits)
Measured flits: (0 flits)
Class 0:
Remaining flits: (0 flits)
Measured flits: (0 flits)
Class 0:
Remaining flits: (0 flits)
Measured flits: (0 flits)
Class 0:
Remaining flits: (0 flits)
Measured flits: (0 flits)
Class 0:
Remaining flits: (0 flits)
Measured flits: (0 flits)
Class 0:
Remaining flits: (0 flits)
Measured flits: (0 flits)
Class 0:
Remaining flits: (0 flits)
Measured flits: (0 flits)
Class 0:
Remaining flits: (0 flits)
Measured flits: (0 flits)
Class 0:
Remaining flits: (0 flits)
Measured flits: (0 flits)
Class 0:
Remaining flits: (0 flits)
Measured flits: (0 flits)
Class 0:
Remaining flits: (0 flits)
Measured flits: (0 flits)
Class 0:
Remaining flits: (0 flits)
Measured flits: (0 flits)
Class 0:
Remaining flits: (0 flits)
Measured flits: (0 flits)
Class 0:
Remaining flits: (0 flits)
Measured flits: (0 flits)
Class 0:
Remaining flits: (0 flits)
Measured flits: (0 flits)
Class 0:
Remaining flits: (0 flits)
Measured flits: (0 flits)
Class 0:
Remaining flits: (0 flits)
Measured flits: (0 flits)
Class 0:
Remaining flits: (0 flits)
Measured flits: (0 flits)
Class 0:
Remaining flits: (0 flits)
Measured flits: (0 flits)
Class 0:
Remaining flits: (0 flits)
Measured flits: (0 flits)
Class 0:
Remaining flits: (0 flits)
Measured flits: (0 flits)
Class 0:
Remaining flits: (0 flits)
Measured flits: (0 flits)
Class 0:
Remaining flits: (0 flits)
Measured flits: (0 flits)
Class 0:
Remaining flits: (0 flits)
Measured flits: (0 flits)
Class 0:
Remaining flits: (0 flits)
Measured flits: (0 flits)
Class 0:
Remaining flits: (0 flits)
Measured flits: (0 flits)
Class 0:
Remaining flits: (0 flits)
Measured flits: (0 flits)
Class 0:
Remaining flits: (0 flits)
Measured flits: (0 flits)
Class 0:
Remaining flits: (0 flits)
Measured flits: (0 flits)
Class 0:
Remaining flits: (0 flits)
Measured flits: (0 flits)
Class 0:
Remaining flits: (0 flits)
Measured flits: (0 flits)
Class 0:
Remaining flits: (0 flits)
Measured flits: (0 flits)
Class 0:
Remaining flits: (0 flits)
Measured flits: (0 flits)
Class 0:
Remaining flits: (0 flits)
Measured flits: (0 flits)
Class 0:
Remaining flits: (0 flits)
Measured flits: (0 flits)
Class 0:
Remaining flits: (0 flits)
Measured flits: (0 flits)
Class 0:
Remaining flits: (0 flits)
Measured flits: (0 flits)
Class 0:
Remaining flits: (0 flits)
Measured flits: (0 flits)
Class 0:
Remaining flits: (0 flits)
Measured flits: (0 flits)
Class 0:
Remaining flits: (0 flits)
Measured flits: (0 flits)
Class 0:
Remaining flits: (0 flits)
Measured flits: (0 flits)
Class 0:
Remaining flits: (0 flits)
Measured flits: (0 flits)
Class 0:
Remaining flits: (0 flits)
Measured flits: (0 flits)
Class 0:
Remaining flits: (0 flits)
Measured flits: (0 flits)
Class 0:
Remaining flits: (0 flits)
Measured flits: (0 flits)
Class 0:
Remaining flits: (0 flits)
Measured flits: (0 flits)
Class 0:
Remaining flits: (0 flits)
Measured flits: (0 flits)
Class 0:
Remaining flits: (0 flits)
Measured flits: (0 flits)
Class 0:
Remaining flits: (0 flits)
Measured flits: (0 flits)
Class 0:
Remaining flits: (0 flits)
Measured flits: (0 flits)
Class 0:
Remaining flits: (0 flits)
Measured flits: (0 flits)
Class 0:
Remaining flits: (0 flits)
Measured flits: (0 flits)
Class 0:
Remaining flits: (0 flits)
Measured flits: (0 flits)
Class 0:
Remaining flits: (0 flits)
Measured flits: (0 flits)
Class 0:
Remaining flits: (0 flits)
Measured flits: (0 flits)
Class 0:
Remaining flits: (0 flits)
Measured flits: (0 flits)
Class 0:
Remaining flits: (0 flits)
Measured flits: (0 flits)
Class 0:
Remaining flits: (0 flits)
Measured flits: (0 flits)
Class 0:
Remaining flits: (0 flits)
Measured flits: (0 flits)
Class 0:
Remaining flits: (0 flits)
Measured flits: (0 flits)
Class 0:
Remaining flits: (0 flits)
Measured flits: (0 flits)
Class 0:
Remaining flits: (0 flits)
Measured flits: (0 flits)
Class 0:
Remaining flits: (0 flits)
Measured flits: (0 flits)
Class 0:
Remaining flits: (0 flits)
Measured flits: (0 flits)
Class 0:
Remaining flits: (0 flits)
Measured flits: (0 flits)
Class 0:
Remaining flits: (0 flits)
Measured flits: (0 flits)
Class 0:
Remaining flits: (0 flits)
Measured flits: (0 flits)
Class 0:
Remaining flits: (0 flits)
Measured flits: (0 flits)
Class 0:
Remaining flits: (0 flits)
Measured flits: (0 flits)
Class 0:
Remaining flits: (0 flits)
Measured flits: (0 flits)
Class 0:
Remaining flits: (0 flits)
Measured flits: (0 flits)
Class 0:
Remaining flits: (0 flits)
Measured flits: (0 flits)
Class 0:
Remaining flits: (0 flits)
Measured flits: (0 flits)
Class 0:
Remaining flits: (0 flits)
Measured flits: (0 flits)
Class 0:
Remaining flits: (0 flits)
Measured flits: (0 flits)
Class 0:
Remaining flits: (0 flits)
Measured flits: (0 flits)
Class 0:
Remaining flits: (0 flits)
Measured flits: (0 flits)
Time taken is 8000 cycles
====== Traffic class 0 ======

Total number of flits generated = 5530, changed lanes = 5238
Overall minimum packet latency = 7 (1 samples)
Overall average packet latency = 29.9134 (1 samples)
Overall maximum packet latency = 295 (1 samples)
Overall minimum network latency = 8 (1 samples)
Overall average network latency = 30.9134 (1 samples)
Overall maximum network latency = 296 (1 samples)
Overall minimum flit latency = 8 (1 samples)
Overall average flit latency = 30.9782 (1 samples)
Overall maximum flit latency = 296 (1 samples)
Overall minimum fragmentation = 0 (1 samples)
Overall average fragmentation = 0 (1 samples)
Overall maximum fragmentation = 0 (1 samples)
Overall minimum injected packet rate = 0.04275 (1 samples)
Overall average injected packet rate = 0.0488906 (1 samples)
Overall maximum injected packet rate = 0.054 (1 samples)
Overall minimum accepted packet rate = 0.04125 (1 samples)
Overall average accepted packet rate = 0.0490781 (1 samples)
Overall maximum accepted packet rate = 0.0535 (1 samples)
Overall minimum injected flit rate = 0.04275 (1 samples)
Overall average injected flit rate = 0.0488906 (1 samples)
Overall maximum injected flit rate = 0.054 (1 samples)
Overall minimum accepted flit rate = 0.04125 (1 samples)
Overall average accepted flit rate = 0.0490781 (1 samples)
Overall maximum accepted flit rate = 0.0535 (1 samples)
Overall average injected packet size = 1 (1 samples)
Overall average accepted packet size = 1 (1 samples)
Overall average hops = 2.98818 (1 samples)
Overall throughput of the network (flits/cycle) = 1.3825
Overall throughput of the network (packets/cycle) = 1.3825
Total run time 10.7262
