make: Nothing to be done for 'all'.
Master: Running timer....
Master: Running SRC....
BEGIN Configuration File: ./examples/bitrev
// Topology

topology = mesh;
k = 4;
n = 2;

// Routing
routing_function = dor;

// Flow control
num_vcs     = 1;
vc_buf_size = 4;
wait_for_tail_credit = 0;

// Router architecture
vc_allocator = islip;
sw_allocator = islip;
alloc_iters  = 1;

credit_delay   = 1;
routing_delay  = 1;
vc_alloc_delay = 1;
sw_alloc_delay = 1;

input_speedup     = 1;
output_speedup    = 1;
internal_speedup  = 1.0;

vc_busy_when_full = 0;

// Traffic
traffic = uniform;
packet_size = 2;

// Simulation
sim_type = throughput;

injection_rate = 0.05;

END Configuration File: ./examples/bitrev
===== Time: 10000 =====
Class 0:
Minimum packet latency = 13
Average packet latency = 63.0324
Maximum packet latency = 193
Minimum network latency = 14
Average network latency = 60.5816
Maximum network latency = 191
Slowest packet = 575
Minimum flit latency = 9
Average flit latency = 56.5639
Maximum flit latency = 190
Slowest flit = 1151
Minimum fragmentation = 1
Average fragmentation = 5.56422
Maximum fragmentation = 145
Minimum injected packet rate = 0.0066 (at node 7)
Average injected packet rate = 0.0187375
Maximum injected packet rate = 0.0242 (at node 0)
Minimum accepted packet rate = 0.0163 (at node 14)
Average accepted packet rate = 0.0183437
Maximum accepted packet rate = 0.0209 (at node 15)
Minimum injected flit rate = 0.0131 (at node 7)
Average injected flit rate = 0.0374563
Maximum injected flit rate = 0.0484 (at node 0)
Minimum accepted flit rate = 0.0326 (at node 14)
Average accepted flit rate = 0.0366875
Maximum accepted flit rate = 0.0418 (at node 15)
Total number of injected packets = 2998
Total number of injected flits = 5993
Average injected packet length = 1.999
Total number of accepted packets = 2935
Total number of accepted flits = 5870
Average accepted packet length = 2
Total in-flight flits = 152 (0 measured)
===== Time: 20000 =====
Class 0:
Minimum packet latency = 13
Average packet latency = 63.0324
Maximum packet latency = 193
Minimum network latency = 14
Average network latency = 60.5816
Maximum network latency = 191
Slowest packet = 575
Minimum flit latency = 9
Average flit latency = 56.5639
Maximum flit latency = 190
Slowest flit = 1151
Minimum fragmentation = 1
Average fragmentation = 5.56422
Maximum fragmentation = 145
Minimum injected packet rate = 0.0033 (at node 7)
Average injected packet rate = 0.00936875
Maximum injected packet rate = 0.0121 (at node 0)
Minimum accepted packet rate = 0.00815 (at node 14)
Average accepted packet rate = 0.00917187
Maximum accepted packet rate = 0.01045 (at node 15)
Minimum injected flit rate = 0.00655 (at node 7)
Average injected flit rate = 0.0187281
Maximum injected flit rate = 0.0242 (at node 0)
Minimum accepted flit rate = 0.0163 (at node 14)
Average accepted flit rate = 0.0183437
Maximum accepted flit rate = 0.0209 (at node 15)
Total number of injected packets = 2998
Total number of injected flits = 5993
Average injected packet length = 1.999
Total number of accepted packets = 2935
Total number of accepted flits = 5870
Average accepted packet length = 2
Total in-flight flits = 152 (0 measured)
===== Time: 30000 =====
Class 0:
Minimum packet latency = nan
Average packet latency = -nan
Maximum packet latency = -nan
Minimum network latency = nan
Average network latency = -nan
Maximum network latency = -nan
Slowest packet = -1
Minimum flit latency = nan
Average flit latency = -nan
Maximum flit latency = -nan
Slowest flit = -1
Minimum fragmentation = nan
Average fragmentation = -nan
Maximum fragmentation = -nan
Minimum injected packet rate = 0 (at node 0)
Average injected packet rate = 0
Maximum injected packet rate = 0 (at node 0)
Minimum accepted packet rate = 0 (at node 0)
Average accepted packet rate = 0
Maximum accepted packet rate = 0 (at node 0)
Minimum injected flit rate = 0 (at node 0)
Average injected flit rate = 0
Maximum injected flit rate = 0 (at node 0)
Minimum accepted flit rate = 0 (at node 0)
Average accepted flit rate = 0
Maximum accepted flit rate = 0 (at node 0)
Total number of injected packets = 0
Total number of injected flits = 0
Average injected packet length = -nan
Total number of accepted packets = 0
Total number of accepted flits = 0
Average accepted packet length = -nan
Total in-flight flits = 152 (0 measured)
===== Time: 40000 =====
Class 0:
Minimum packet latency = nan
Average packet latency = -nan
Maximum packet latency = -nan
Minimum network latency = nan
Average network latency = -nan
Maximum network latency = -nan
Slowest packet = -1
Minimum flit latency = nan
Average flit latency = -nan
Maximum flit latency = -nan
Slowest flit = -1
Minimum fragmentation = nan
Average fragmentation = -nan
Maximum fragmentation = -nan
Minimum injected packet rate = 0 (at node 0)
Average injected packet rate = 0
Maximum injected packet rate = 0 (at node 0)
Minimum accepted packet rate = 0 (at node 0)
Average accepted packet rate = 0
Maximum accepted packet rate = 0 (at node 0)
Minimum injected flit rate = 0 (at node 0)
Average injected flit rate = 0
Maximum injected flit rate = 0 (at node 0)
Minimum accepted flit rate = 0 (at node 0)
Average accepted flit rate = 0
Maximum accepted flit rate = 0 (at node 0)
Total number of injected packets = 0
Total number of injected flits = 0
Average injected packet length = -nan
Total number of accepted packets = 0
Total number of accepted flits = 0
Average accepted packet length = -nan
Total in-flight flits = 152 (0 measured)
===== Time: 50000 =====
Class 0:
Minimum packet latency = nan
Average packet latency = -nan
Maximum packet latency = -nan
Minimum network latency = nan
Average network latency = -nan
Maximum network latency = -nan
Slowest packet = -1
Minimum flit latency = nan
Average flit latency = -nan
Maximum flit latency = -nan
Slowest flit = -1
Minimum fragmentation = nan
Average fragmentation = -nan
Maximum fragmentation = -nan
Minimum injected packet rate = 0 (at node 0)
Average injected packet rate = 0
Maximum injected packet rate = 0 (at node 0)
Minimum accepted packet rate = 0 (at node 0)
Average accepted packet rate = 0
Maximum accepted packet rate = 0 (at node 0)
Minimum injected flit rate = 0 (at node 0)
Average injected flit rate = 0
Maximum injected flit rate = 0 (at node 0)
Minimum accepted flit rate = 0 (at node 0)
Average accepted flit rate = 0
Maximum accepted flit rate = 0 (at node 0)
Total number of injected packets = 0
Total number of injected flits = 0
Average injected packet length = -nan
Total number of accepted packets = 0
Total number of accepted flits = 0
Average accepted packet length = -nan
Total in-flight flits = 152 (0 measured)
===== Time: 60000 =====
Class 0:
Minimum packet latency = nan
Average packet latency = -nan
Maximum packet latency = -nan
Minimum network latency = nan
Average network latency = -nan
Maximum network latency = -nan
Slowest packet = -1
Minimum flit latency = nan
Average flit latency = -nan
Maximum flit latency = -nan
Slowest flit = -1
Minimum fragmentation = nan
Average fragmentation = -nan
Maximum fragmentation = -nan
Minimum injected packet rate = 0 (at node 0)
Average injected packet rate = 0
Maximum injected packet rate = 0 (at node 0)
Minimum accepted packet rate = 0 (at node 0)
Average accepted packet rate = 0
Maximum accepted packet rate = 0 (at node 0)
Minimum injected flit rate = 0 (at node 0)
Average injected flit rate = 0
Maximum injected flit rate = 0 (at node 0)
Minimum accepted flit rate = 0 (at node 0)
Average accepted flit rate = 0
Maximum accepted flit rate = 0 (at node 0)
Total number of injected packets = 0
Total number of injected flits = 0
Average injected packet length = -nan
Total number of accepted packets = 0
Total number of accepted flits = 0
Average accepted packet length = -nan
Total in-flight flits = 152 (0 measured)
Draining remaining packets ...
Class 0:
Remaining flits: 2236 2237 2246 2247 2258 2259 2894 2895 2990 2991 [...] (152 flits)
Measured flits: (0 flits)
Class 0:
Remaining flits: 2236 2237 2246 2247 2258 2259 2894 2895 2990 2991 [...] (152 flits)
Measured flits: (0 flits)
Class 0:
Remaining flits: 2236 2237 2246 2247 2258 2259 2894 2895 2990 2991 [...] (152 flits)
Measured flits: (0 flits)
Class 0:
Remaining flits: 2236 2237 2246 2247 2258 2259 2894 2895 2990 2991 [...] (152 flits)
Measured flits: (0 flits)
Class 0:
Remaining flits: 2236 2237 2246 2247 2258 2259 2894 2895 2990 2991 [...] (152 flits)
Measured flits: (0 flits)
Class 0:
Remaining flits: 2236 2237 2246 2247 2258 2259 2894 2895 2990 2991 [...] (152 flits)
Measured flits: (0 flits)
Class 0:
Remaining flits: 2236 2237 2246 2247 2258 2259 2894 2895 2990 2991 [...] (152 flits)
Measured flits: (0 flits)
Class 0:
Remaining flits: 2236 2237 2246 2247 2258 2259 2894 2895 2990 2991 [...] (152 flits)
Measured flits: (0 flits)
Class 0:
Remaining flits: 2236 2237 2246 2247 2258 2259 2894 2895 2990 2991 [...] (152 flits)
Measured flits: (0 flits)
Class 0:
Remaining flits: 2236 2237 2246 2247 2258 2259 2894 2895 2990 2991 [...] (152 flits)
Measured flits: (0 flits)
Class 0:
Remaining flits: 2236 2237 2246 2247 2258 2259 2894 2895 2990 2991 [...] (152 flits)
Measured flits: (0 flits)
Class 0:
Remaining flits: 2236 2237 2246 2247 2258 2259 2894 2895 2990 2991 [...] (152 flits)
Measured flits: (0 flits)
Class 0:
Remaining flits: 2236 2237 2246 2247 2258 2259 2894 2895 2990 2991 [...] (152 flits)
Measured flits: (0 flits)
Class 0:
Remaining flits: 2236 2237 2246 2247 2258 2259 2894 2895 2990 2991 [...] (152 flits)
Measured flits: (0 flits)
Class 0:
Remaining flits: 2236 2237 2246 2247 2258 2259 2894 2895 2990 2991 [...] (152 flits)
Measured flits: (0 flits)
Class 0:
Remaining flits: 2236 2237 2246 2247 2258 2259 2894 2895 2990 2991 [...] (152 flits)
Measured flits: (0 flits)
Class 0:
Remaining flits: 2236 2237 2246 2247 2258 2259 2894 2895 2990 2991 [...] (152 flits)
Measured flits: (0 flits)
Class 0:
Remaining flits: 2236 2237 2246 2247 2258 2259 2894 2895 2990 2991 [...] (152 flits)
Measured flits: (0 flits)
Class 0:
Remaining flits: 2236 2237 2246 2247 2258 2259 2894 2895 2990 2991 [...] (152 flits)
Measured flits: (0 flits)
Class 0:
Remaining flits: 2236 2237 2246 2247 2258 2259 2894 2895 2990 2991 [...] (152 flits)
Measured flits: (0 flits)
Class 0:
Remaining flits: 2236 2237 2246 2247 2258 2259 2894 2895 2990 2991 [...] (152 flits)
Measured flits: (0 flits)
Class 0:
Remaining flits: 2236 2237 2246 2247 2258 2259 2894 2895 2990 2991 [...] (152 flits)
Measured flits: (0 flits)
Class 0:
Remaining flits: 2236 2237 2246 2247 2258 2259 2894 2895 2990 2991 [...] (152 flits)
Measured flits: (0 flits)
Class 0:
Remaining flits: 2236 2237 2246 2247 2258 2259 2894 2895 2990 2991 [...] (152 flits)
Measured flits: (0 flits)
Class 0:
Remaining flits: 2236 2237 2246 2247 2258 2259 2894 2895 2990 2991 [...] (152 flits)
Measured flits: (0 flits)
Class 0:
Remaining flits: 2236 2237 2246 2247 2258 2259 2894 2895 2990 2991 [...] (152 flits)
Measured flits: (0 flits)
Class 0:
Remaining flits: 2236 2237 2246 2247 2258 2259 2894 2895 2990 2991 [...] (152 flits)
Measured flits: (0 flits)
Class 0:
Remaining flits: 2236 2237 2246 2247 2258 2259 2894 2895 2990 2991 [...] (152 flits)
Measured flits: (0 flits)
Class 0:
Remaining flits: 2236 2237 2246 2247 2258 2259 2894 2895 2990 2991 [...] (152 flits)
Measured flits: (0 flits)
Class 0:
Remaining flits: 2236 2237 2246 2247 2258 2259 2894 2895 2990 2991 [...] (152 flits)
Measured flits: (0 flits)
Class 0:
Remaining flits: 2236 2237 2246 2247 2258 2259 2894 2895 2990 2991 [...] (152 flits)
Measured flits: (0 flits)
Class 0:
Remaining flits: 2236 2237 2246 2247 2258 2259 2894 2895 2990 2991 [...] (152 flits)
Measured flits: (0 flits)
Class 0:
Remaining flits: 2236 2237 2246 2247 2258 2259 2894 2895 2990 2991 [...] (152 flits)
Measured flits: (0 flits)
Class 0:
Remaining flits: 2236 2237 2246 2247 2258 2259 2894 2895 2990 2991 [...] (152 flits)
Measured flits: (0 flits)
Class 0:
Remaining flits: 2236 2237 2246 2247 2258 2259 2894 2895 2990 2991 [...] (152 flits)
Measured flits: (0 flits)
Class 0:
Remaining flits: 2236 2237 2246 2247 2258 2259 2894 2895 2990 2991 [...] (152 flits)
Measured flits: (0 flits)
Class 0:
Remaining flits: 2236 2237 2246 2247 2258 2259 2894 2895 2990 2991 [...] (152 flits)
Measured flits: (0 flits)
Class 0:
Remaining flits: 2236 2237 2246 2247 2258 2259 2894 2895 2990 2991 [...] (152 flits)
Measured flits: (0 flits)
Class 0:
Remaining flits: 2236 2237 2246 2247 2258 2259 2894 2895 2990 2991 [...] (152 flits)
Measured flits: (0 flits)
Class 0:
Remaining flits: 2236 2237 2246 2247 2258 2259 2894 2895 2990 2991 [...] (152 flits)
Measured flits: (0 flits)
Class 0:
Remaining flits: 2236 2237 2246 2247 2258 2259 2894 2895 2990 2991 [...] (152 flits)
Measured flits: (0 flits)
Class 0:
Remaining flits: 2236 2237 2246 2247 2258 2259 2894 2895 2990 2991 [...] (152 flits)
Measured flits: (0 flits)
Class 0:
Remaining flits: 2236 2237 2246 2247 2258 2259 2894 2895 2990 2991 [...] (152 flits)
Measured flits: (0 flits)
Class 0:
Remaining flits: 2236 2237 2246 2247 2258 2259 2894 2895 2990 2991 [...] (152 flits)
Measured flits: (0 flits)
Class 0:
Remaining flits: 2236 2237 2246 2247 2258 2259 2894 2895 2990 2991 [...] (152 flits)
Measured flits: (0 flits)
Class 0:
Remaining flits: 2236 2237 2246 2247 2258 2259 2894 2895 2990 2991 [...] (152 flits)
Measured flits: (0 flits)
Class 0:
Remaining flits: 2236 2237 2246 2247 2258 2259 2894 2895 2990 2991 [...] (152 flits)
Measured flits: (0 flits)
Class 0:
Remaining flits: 2236 2237 2246 2247 2258 2259 2894 2895 2990 2991 [...] (152 flits)
Measured flits: (0 flits)
Class 0:
Remaining flits: 2236 2237 2246 2247 2258 2259 2894 2895 2990 2991 [...] (152 flits)
Measured flits: (0 flits)
Class 0:
Remaining flits: 2236 2237 2246 2247 2258 2259 2894 2895 2990 2991 [...] (152 flits)
Measured flits: (0 flits)
Class 0:
Remaining flits: 2236 2237 2246 2247 2258 2259 2894 2895 2990 2991 [...] (152 flits)
Measured flits: (0 flits)
Class 0:
Remaining flits: 2236 2237 2246 2247 2258 2259 2894 2895 2990 2991 [...] (152 flits)
Measured flits: (0 flits)
Class 0:
Remaining flits: 2236 2237 2246 2247 2258 2259 2894 2895 2990 2991 [...] (152 flits)
Measured flits: (0 flits)
Class 0:
Remaining flits: 2236 2237 2246 2247 2258 2259 2894 2895 2990 2991 [...] (152 flits)
Measured flits: (0 flits)
Class 0:
Remaining flits: 2236 2237 2246 2247 2258 2259 2894 2895 2990 2991 [...] (152 flits)
Measured flits: (0 flits)
Class 0:
Remaining flits: 2236 2237 2246 2247 2258 2259 2894 2895 2990 2991 [...] (152 flits)
Measured flits: (0 flits)
Class 0:
Remaining flits: 2236 2237 2246 2247 2258 2259 2894 2895 2990 2991 [...] (152 flits)
Measured flits: (0 flits)
Class 0:
Remaining flits: 2236 2237 2246 2247 2258 2259 2894 2895 2990 2991 [...] (152 flits)
Measured flits: (0 flits)
Class 0:
Remaining flits: 2236 2237 2246 2247 2258 2259 2894 2895 2990 2991 [...] (152 flits)
Measured flits: (0 flits)
Class 0:
Remaining flits: 2236 2237 2246 2247 2258 2259 2894 2895 2990 2991 [...] (152 flits)
Measured flits: (0 flits)
Class 0:
Remaining flits: 2236 2237 2246 2247 2258 2259 2894 2895 2990 2991 [...] (152 flits)
Measured flits: (0 flits)
Class 0:
Remaining flits: 2236 2237 2246 2247 2258 2259 2894 2895 2990 2991 [...] (152 flits)
Measured flits: (0 flits)
Class 0:
Remaining flits: 2236 2237 2246 2247 2258 2259 2894 2895 2990 2991 [...] (152 flits)
Measured flits: (0 flits)
Class 0:
Remaining flits: 2236 2237 2246 2247 2258 2259 2894 2895 2990 2991 [...] (152 flits)
Measured flits: (0 flits)
Class 0:
Remaining flits: 2236 2237 2246 2247 2258 2259 2894 2895 2990 2991 [...] (152 flits)
Measured flits: (0 flits)
Class 0:
Remaining flits: 2236 2237 2246 2247 2258 2259 2894 2895 2990 2991 [...] (152 flits)
Measured flits: (0 flits)
Class 0:
Remaining flits: 2236 2237 2246 2247 2258 2259 2894 2895 2990 2991 [...] (152 flits)
Measured flits: (0 flits)
Class 0:
Remaining flits: 2236 2237 2246 2247 2258 2259 2894 2895 2990 2991 [...] (152 flits)
Measured flits: (0 flits)
Class 0:
Remaining flits: 2236 2237 2246 2247 2258 2259 2894 2895 2990 2991 [...] (152 flits)
Measured flits: (0 flits)
Class 0:
Remaining flits: 2236 2237 2246 2247 2258 2259 2894 2895 2990 2991 [...] (152 flits)
Measured flits: (0 flits)
Class 0:
Remaining flits: 2236 2237 2246 2247 2258 2259 2894 2895 2990 2991 [...] (152 flits)
Measured flits: (0 flits)
Class 0:
Remaining flits: 2236 2237 2246 2247 2258 2259 2894 2895 2990 2991 [...] (152 flits)
Measured flits: (0 flits)
Class 0:
Remaining flits: 2236 2237 2246 2247 2258 2259 2894 2895 2990 2991 [...] (152 flits)
Measured flits: (0 flits)
Class 0:
Remaining flits: 2236 2237 2246 2247 2258 2259 2894 2895 2990 2991 [...] (152 flits)
Measured flits: (0 flits)
Class 0:
Remaining flits: 2236 2237 2246 2247 2258 2259 2894 2895 2990 2991 [...] (152 flits)
Measured flits: (0 flits)
Class 0:
Remaining flits: 2236 2237 2246 2247 2258 2259 2894 2895 2990 2991 [...] (152 flits)
Measured flits: (0 flits)
Class 0:
Remaining flits: 2236 2237 2246 2247 2258 2259 2894 2895 2990 2991 [...] (152 flits)
Measured flits: (0 flits)
Class 0:
Remaining flits: 2236 2237 2246 2247 2258 2259 2894 2895 2990 2991 [...] (152 flits)
Measured flits: (0 flits)
Class 0:
Remaining flits: 2236 2237 2246 2247 2258 2259 2894 2895 2990 2991 [...] (152 flits)
Measured flits: (0 flits)
Class 0:
Remaining flits: 2236 2237 2246 2247 2258 2259 2894 2895 2990 2991 [...] (152 flits)
Measured flits: (0 flits)
Class 0:
Remaining flits: 2236 2237 2246 2247 2258 2259 2894 2895 2990 2991 [...] (152 flits)
Measured flits: (0 flits)
Class 0:
Remaining flits: 2236 2237 2246 2247 2258 2259 2894 2895 2990 2991 [...] (152 flits)
Measured flits: (0 flits)
Class 0:
Remaining flits: 2236 2237 2246 2247 2258 2259 2894 2895 2990 2991 [...] (152 flits)
Measured flits: (0 flits)
Class 0:
Remaining flits: 2236 2237 2246 2247 2258 2259 2894 2895 2990 2991 [...] (152 flits)
Measured flits: (0 flits)
Class 0:
Remaining flits: 2236 2237 2246 2247 2258 2259 2894 2895 2990 2991 [...] (152 flits)
Measured flits: (0 flits)
Class 0:
Remaining flits: 2236 2237 2246 2247 2258 2259 2894 2895 2990 2991 [...] (152 flits)
Measured flits: (0 flits)
Class 0:
Remaining flits: 2236 2237 2246 2247 2258 2259 2894 2895 2990 2991 [...] (152 flits)
Measured flits: (0 flits)
Class 0:
Remaining flits: 2236 2237 2246 2247 2258 2259 2894 2895 2990 2991 [...] (152 flits)
Measured flits: (0 flits)
Class 0:
Remaining flits: 2236 2237 2246 2247 2258 2259 2894 2895 2990 2991 [...] (152 flits)
Measured flits: (0 flits)
Class 0:
Remaining flits: 2236 2237 2246 2247 2258 2259 2894 2895 2990 2991 [...] (152 flits)
Measured flits: (0 flits)
Class 0:
Remaining flits: 2236 2237 2246 2247 2258 2259 2894 2895 2990 2991 [...] (152 flits)
Measured flits: (0 flits)
Class 0:
Remaining flits: 2236 2237 2246 2247 2258 2259 2894 2895 2990 2991 [...] (152 flits)
Measured flits: (0 flits)
Class 0:
Remaining flits: 2236 2237 2246 2247 2258 2259 2894 2895 2990 2991 [...] (152 flits)
Measured flits: (0 flits)
Class 0:
Remaining flits: 2236 2237 2246 2247 2258 2259 2894 2895 2990 2991 [...] (152 flits)
Measured flits: (0 flits)
Class 0:
Remaining flits: 2236 2237 2246 2247 2258 2259 2894 2895 2990 2991 [...] (152 flits)
Measured flits: (0 flits)
Class 0:
Remaining flits: 2236 2237 2246 2247 2258 2259 2894 2895 2990 2991 [...] (152 flits)
Measured flits: (0 flits)
Class 0:
Remaining flits: 2236 2237 2246 2247 2258 2259 2894 2895 2990 2991 [...] (152 flits)
Measured flits: (0 flits)
Class 0:
Remaining flits: 2236 2237 2246 2247 2258 2259 2894 2895 2990 2991 [...] (152 flits)
Measured flits: (0 flits)
Class 0:
Remaining flits: 2236 2237 2246 2247 2258 2259 2894 2895 2990 2991 [...] (152 flits)
Measured flits: (0 flits)
Class 0:
Remaining flits: 2236 2237 2246 2247 2258 2259 2894 2895 2990 2991 [...] (152 flits)
Measured flits: (0 flits)
Class 0:
Remaining flits: 2236 2237 2246 2247 2258 2259 2894 2895 2990 2991 [...] (152 flits)
Measured flits: (0 flits)
Time taken is 61000 cycles
====== Traffic class 0 ======

Total number of flits generated = 6022, changed lanes = 0
Overall minimum packet latency = nan (1 samples)
Overall average packet latency = -nan (1 samples)
Overall maximum packet latency = -nan (1 samples)
Overall minimum network latency = nan (1 samples)
Overall average network latency = -nan (1 samples)
Overall maximum network latency = -nan (1 samples)
Overall minimum flit latency = nan (1 samples)
Overall average flit latency = -nan (1 samples)
Overall maximum flit latency = -nan (1 samples)
Overall minimum fragmentation = nan (1 samples)
Overall average fragmentation = -nan (1 samples)
Overall maximum fragmentation = -nan (1 samples)
Overall minimum injected packet rate = 0 (1 samples)
Overall average injected packet rate = 0 (1 samples)
Overall maximum injected packet rate = 0 (1 samples)
Overall minimum accepted packet rate = 0 (1 samples)
Overall average accepted packet rate = 0 (1 samples)
Overall maximum accepted packet rate = 0 (1 samples)
Overall minimum injected flit rate = 0 (1 samples)
Overall average injected flit rate = 0 (1 samples)
Overall maximum injected flit rate = 0 (1 samples)
Overall minimum accepted flit rate = 0 (1 samples)
Overall average accepted flit rate = 0 (1 samples)
Overall maximum accepted flit rate = 0 (1 samples)
Overall average injected packet size = -nan (1 samples)
Overall average accepted packet size = -nan (1 samples)
Overall average hops = -nan (1 samples)
Overall throughput of the network (flits/cycle) = 0.195667
Overall throughput of the network (packets/cycle) = 0.0978333
Total run time 2901.84
