make: Nothing to be done for 'all'.
Master: Running timer....
Master: Running SRC....
BEGIN Configuration File: ./examples/bitrev
// Topology

topology = torus;
k = 2;
n = 2;

// Routing
routing_function = dim_order;

// Flow control
num_vcs     = 4;
vc_buf_size = 4;
wait_for_tail_credit = 0;

// Router architecture
vc_allocator = islip;
sw_allocator = islip;
alloc_iters  = 1;

credit_delay   = 1;
routing_delay  = 1;
vc_alloc_delay = 1;
sw_alloc_delay = 1;

input_speedup     = 1;
output_speedup    = 1;
internal_speedup  = 1.0;

vc_busy_when_full = 0;

// Traffic
traffic = uniform;
packet_size = 1;

// Simulation
sim_type = throughput;

injection_rate = 0.05;

END Configuration File: ./examples/bitrev
===== Time: 1000 =====
Class 0:
Minimum packet latency = 8
Average packet latency = 21.5783
Maximum packet latency = 39
Minimum network latency = 9
Average network latency = 22.5783
Maximum network latency = 40
Slowest packet = 62
Minimum flit latency = 9
Average flit latency = 22.5783
Maximum flit latency = 40
Slowest flit = 62
Minimum fragmentation = 0
Average fragmentation = 0
Maximum fragmentation = 0
Minimum injected packet rate = 0.038 (at node 2)
Average injected packet rate = 0.04325
Maximum injected packet rate = 0.048 (at node 1)
Minimum accepted packet rate = 0.034 (at node 0)
Average accepted packet rate = 0.0415
Maximum accepted packet rate = 0.049 (at node 3)
Minimum injected flit rate = 0.038 (at node 2)
Average injected flit rate = 0.04325
Maximum injected flit rate = 0.048 (at node 1)
Minimum accepted flit rate = 0.034 (at node 0)
Average accepted flit rate = 0.0415
Maximum accepted flit rate = 0.049 (at node 3)
Total number of injected packets = 173
Total number of injected flits = 173
Average injected packet length = 1
Total number of accepted packets = 166
Total number of accepted flits = 166
Average accepted packet length = 1
Total in-flight flits = 7 (0 measured)
===== Time: 2000 =====
Class 0:
Minimum packet latency = 8
Average packet latency = 22.3788
Maximum packet latency = 47
Minimum network latency = 9
Average network latency = 23.3788
Maximum network latency = 48
Slowest packet = 229
Minimum flit latency = 9
Average flit latency = 23.3788
Maximum flit latency = 48
Slowest flit = 229
Minimum fragmentation = 0
Average fragmentation = 0
Maximum fragmentation = 0
Minimum injected packet rate = 0.044 (at node 0)
Average injected packet rate = 0.049625
Maximum injected packet rate = 0.0555 (at node 1)
Minimum accepted packet rate = 0.047 (at node 2)
Average accepted packet rate = 0.0495
Maximum accepted packet rate = 0.0515 (at node 3)
Minimum injected flit rate = 0.044 (at node 0)
Average injected flit rate = 0.049625
Maximum injected flit rate = 0.0555 (at node 1)
Minimum accepted flit rate = 0.047 (at node 2)
Average accepted flit rate = 0.0495
Maximum accepted flit rate = 0.0515 (at node 3)
Total number of injected packets = 397
Total number of injected flits = 397
Average injected packet length = 1
Total number of accepted packets = 396
Total number of accepted flits = 396
Average accepted packet length = 1
Total in-flight flits = 1 (0 measured)
===== Time: 3000 =====
Class 0:
Minimum packet latency = 9
Average packet latency = 21.927
Maximum packet latency = 41
Minimum network latency = 10
Average network latency = 22.927
Maximum network latency = 42
Slowest packet = 423
Minimum flit latency = 10
Average flit latency = 22.927
Maximum flit latency = 42
Slowest flit = 423
Minimum fragmentation = 0
Average fragmentation = 0
Maximum fragmentation = 0
Minimum injected packet rate = 0.04 (at node 2)
Average injected packet rate = 0.045
Maximum injected packet rate = 0.049 (at node 0)
Minimum accepted packet rate = 0.037 (at node 2)
Average accepted packet rate = 0.0445
Maximum accepted packet rate = 0.054 (at node 1)
Minimum injected flit rate = 0.04 (at node 2)
Average injected flit rate = 0.045
Maximum injected flit rate = 0.049 (at node 0)
Minimum accepted flit rate = 0.037 (at node 2)
Average accepted flit rate = 0.0445
Maximum accepted flit rate = 0.054 (at node 1)
Total number of injected packets = 180
Total number of injected flits = 180
Average injected packet length = 1
Total number of accepted packets = 178
Total number of accepted flits = 178
Average accepted packet length = 1
Total in-flight flits = 3 (0 measured)
===== Time: 4000 =====
Class 0:
Minimum packet latency = 9
Average packet latency = 22.2537
Maximum packet latency = 44
Minimum network latency = 10
Average network latency = 23.2537
Maximum network latency = 45
Slowest packet = 678
Minimum flit latency = 10
Average flit latency = 23.2402
Maximum flit latency = 45
Slowest flit = 678
Minimum fragmentation = 0
Average fragmentation = 0
Maximum fragmentation = 0
Minimum injected packet rate = 0.038 (at node 1)
Average injected packet rate = 0.05125
Maximum injected packet rate = 0.057 (at node 3)
Minimum accepted packet rate = 0.048 (at node 3)
Average accepted packet rate = 0.051
Maximum accepted packet rate = 0.055 (at node 2)
Minimum injected flit rate = 0.038 (at node 1)
Average injected flit rate = 0.05125
Maximum injected flit rate = 0.057 (at node 3)
Minimum accepted flit rate = 0.048 (at node 3)
Average accepted flit rate = 0.051
Maximum accepted flit rate = 0.055 (at node 2)
Total number of injected packets = 205
Total number of injected flits = 205
Average injected packet length = 1
Total number of accepted packets = 204
Total number of accepted flits = 204
Average accepted packet length = 1
Total in-flight flits = 4 (4 measured)
===== Time: 5000 =====
Class 0:
Minimum packet latency = 8
Average packet latency = 22.6955
Maximum packet latency = 82
Minimum network latency = 9
Average network latency = 23.6955
Maximum network latency = 83
Slowest packet = 908
Minimum flit latency = 9
Average flit latency = 23.6849
Maximum flit latency = 83
Slowest flit = 908
Minimum fragmentation = 0
Average fragmentation = 0
Maximum fragmentation = 0
Minimum injected packet rate = 0.0375 (at node 1)
Average injected packet rate = 0.047875
Maximum injected packet rate = 0.0535 (at node 2)
Minimum accepted packet rate = 0.0435 (at node 0)
Average accepted packet rate = 0.048
Maximum accepted packet rate = 0.056 (at node 2)
Minimum injected flit rate = 0.0375 (at node 1)
Average injected flit rate = 0.047875
Maximum injected flit rate = 0.0535 (at node 2)
Minimum accepted flit rate = 0.0435 (at node 0)
Average accepted flit rate = 0.048
Maximum accepted flit rate = 0.056 (at node 2)
Total number of injected packets = 383
Total number of injected flits = 383
Average injected packet length = 1
Total number of accepted packets = 384
Total number of accepted flits = 384
Average accepted packet length = 1
Total in-flight flits = 2 (2 measured)
===== Time: 6000 =====
Class 0:
Minimum packet latency = 8
Average packet latency = 22.586
Maximum packet latency = 82
Minimum network latency = 9
Average network latency = 23.586
Maximum network latency = 83
Slowest packet = 908
Minimum flit latency = 9
Average flit latency = 23.5797
Maximum flit latency = 83
Slowest flit = 908
Minimum fragmentation = 0
Average fragmentation = 0
Maximum fragmentation = 0
Minimum injected packet rate = 0.045 (at node 1)
Average injected packet rate = 0.0505833
Maximum injected packet rate = 0.0543333 (at node 0)
Minimum accepted packet rate = 0.0463333 (at node 1)
Average accepted packet rate = 0.0501667
Maximum accepted packet rate = 0.0543333 (at node 2)
Minimum injected flit rate = 0.045 (at node 1)
Average injected flit rate = 0.0505833
Maximum injected flit rate = 0.0543333 (at node 0)
Minimum accepted flit rate = 0.0463333 (at node 1)
Average accepted flit rate = 0.0501667
Maximum accepted flit rate = 0.0543333 (at node 2)
Total number of injected packets = 607
Total number of injected flits = 607
Average injected packet length = 1
Total number of accepted packets = 602
Total number of accepted flits = 602
Average accepted packet length = 1
Total in-flight flits = 8 (8 measured)
===== Time: 7000 =====
Class 0:
Minimum packet latency = 8
Average packet latency = 22.9202
Maximum packet latency = 287
Minimum network latency = 9
Average network latency = 23.9202
Maximum network latency = 288
Slowest packet = 1290
Minimum flit latency = 9
Average flit latency = 23.9143
Maximum flit latency = 288
Slowest flit = 1290
Minimum fragmentation = 0
Average fragmentation = 0
Maximum fragmentation = 0
Minimum injected packet rate = 0.04275 (at node 1)
Average injected packet rate = 0.05025
Maximum injected packet rate = 0.0555 (at node 0)
Minimum accepted packet rate = 0.048 (at node 1)
Average accepted packet rate = 0.0503125
Maximum accepted packet rate = 0.05375 (at node 2)
Minimum injected flit rate = 0.04275 (at node 1)
Average injected flit rate = 0.05025
Maximum injected flit rate = 0.0555 (at node 0)
Minimum accepted flit rate = 0.048 (at node 1)
Average accepted flit rate = 0.0503125
Maximum accepted flit rate = 0.05375 (at node 2)
Total number of injected packets = 804
Total number of injected flits = 804
Average injected packet length = 1
Total number of accepted packets = 805
Total number of accepted flits = 805
Average accepted packet length = 1
Total in-flight flits = 2 (2 measured)
===== Time: 8000 =====
Class 0:
Minimum packet latency = 8
Average packet latency = 22.751
Maximum packet latency = 287
Minimum network latency = 9
Average network latency = 23.751
Maximum network latency = 288
Slowest packet = 1290
Minimum flit latency = 9
Average flit latency = 23.7467
Maximum flit latency = 288
Slowest flit = 1290
Minimum fragmentation = 0
Average fragmentation = 0
Maximum fragmentation = 0
Minimum injected packet rate = 0.0462 (at node 1)
Average injected packet rate = 0.04975
Maximum injected packet rate = 0.0522 (at node 0)
Minimum accepted packet rate = 0.0468 (at node 0)
Average accepted packet rate = 0.04975
Maximum accepted packet rate = 0.0514 (at node 3)
Minimum injected flit rate = 0.0462 (at node 1)
Average injected flit rate = 0.04975
Maximum injected flit rate = 0.0522 (at node 0)
Minimum accepted flit rate = 0.0468 (at node 0)
Average accepted flit rate = 0.04975
Maximum accepted flit rate = 0.0514 (at node 3)
Total number of injected packets = 995
Total number of injected flits = 995
Average injected packet length = 1
Total number of accepted packets = 995
Total number of accepted flits = 995
Average accepted packet length = 1
Total in-flight flits = 3 (3 measured)
Draining remaining packets ...
Class 0:
Remaining flits: 1571 (1 flits)
Measured flits: 1571 (1 flits)
Class 0:
Remaining flits: (0 flits)
Measured flits: (0 flits)
Class 0:
Remaining flits: (0 flits)
Measured flits: (0 flits)
Class 0:
Remaining flits: (0 flits)
Measured flits: (0 flits)
Class 0:
Remaining flits: (0 flits)
Measured flits: (0 flits)
Class 0:
Remaining flits: (0 flits)
Measured flits: (0 flits)
Class 0:
Remaining flits: (0 flits)
Measured flits: (0 flits)
Class 0:
Remaining flits: (0 flits)
Measured flits: (0 flits)
Class 0:
Remaining flits: (0 flits)
Measured flits: (0 flits)
Class 0:
Remaining flits: (0 flits)
Measured flits: (0 flits)
Class 0:
Remaining flits: (0 flits)
Measured flits: (0 flits)
Class 0:
Remaining flits: (0 flits)
Measured flits: (0 flits)
Class 0:
Remaining flits: (0 flits)
Measured flits: (0 flits)
Class 0:
Remaining flits: (0 flits)
Measured flits: (0 flits)
Class 0:
Remaining flits: (0 flits)
Measured flits: (0 flits)
Class 0:
Remaining flits: (0 flits)
Measured flits: (0 flits)
Class 0:
Remaining flits: (0 flits)
Measured flits: (0 flits)
Class 0:
Remaining flits: (0 flits)
Measured flits: (0 flits)
Class 0:
Remaining flits: (0 flits)
Measured flits: (0 flits)
Class 0:
Remaining flits: (0 flits)
Measured flits: (0 flits)
Class 0:
Remaining flits: (0 flits)
Measured flits: (0 flits)
Class 0:
Remaining flits: (0 flits)
Measured flits: (0 flits)
Class 0:
Remaining flits: (0 flits)
Measured flits: (0 flits)
Class 0:
Remaining flits: (0 flits)
Measured flits: (0 flits)
Class 0:
Remaining flits: (0 flits)
Measured flits: (0 flits)
Class 0:
Remaining flits: (0 flits)
Measured flits: (0 flits)
Class 0:
Remaining flits: (0 flits)
Measured flits: (0 flits)
Class 0:
Remaining flits: (0 flits)
Measured flits: (0 flits)
Class 0:
Remaining flits: (0 flits)
Measured flits: (0 flits)
Class 0:
Remaining flits: (0 flits)
Measured flits: (0 flits)
Class 0:
Remaining flits: (0 flits)
Measured flits: (0 flits)
Class 0:
Remaining flits: (0 flits)
Measured flits: (0 flits)
Class 0:
Remaining flits: (0 flits)
Measured flits: (0 flits)
Class 0:
Remaining flits: (0 flits)
Measured flits: (0 flits)
Class 0:
Remaining flits: (0 flits)
Measured flits: (0 flits)
Class 0:
Remaining flits: (0 flits)
Measured flits: (0 flits)
Class 0:
Remaining flits: (0 flits)
Measured flits: (0 flits)
Class 0:
Remaining flits: (0 flits)
Measured flits: (0 flits)
Class 0:
Remaining flits: (0 flits)
Measured flits: (0 flits)
Class 0:
Remaining flits: (0 flits)
Measured flits: (0 flits)
Class 0:
Remaining flits: (0 flits)
Measured flits: (0 flits)
Class 0:
Remaining flits: (0 flits)
Measured flits: (0 flits)
Class 0:
Remaining flits: (0 flits)
Measured flits: (0 flits)
Class 0:
Remaining flits: (0 flits)
Measured flits: (0 flits)
Class 0:
Remaining flits: (0 flits)
Measured flits: (0 flits)
Class 0:
Remaining flits: (0 flits)
Measured flits: (0 flits)
Class 0:
Remaining flits: (0 flits)
Measured flits: (0 flits)
Class 0:
Remaining flits: (0 flits)
Measured flits: (0 flits)
Class 0:
Remaining flits: (0 flits)
Measured flits: (0 flits)
Class 0:
Remaining flits: (0 flits)
Measured flits: (0 flits)
Class 0:
Remaining flits: (0 flits)
Measured flits: (0 flits)
Class 0:
Remaining flits: (0 flits)
Measured flits: (0 flits)
Class 0:
Remaining flits: (0 flits)
Measured flits: (0 flits)
Class 0:
Remaining flits: (0 flits)
Measured flits: (0 flits)
Class 0:
Remaining flits: (0 flits)
Measured flits: (0 flits)
Class 0:
Remaining flits: (0 flits)
Measured flits: (0 flits)
Class 0:
Remaining flits: (0 flits)
Measured flits: (0 flits)
Class 0:
Remaining flits: (0 flits)
Measured flits: (0 flits)
Class 0:
Remaining flits: (0 flits)
Measured flits: (0 flits)
Class 0:
Remaining flits: (0 flits)
Measured flits: (0 flits)
Class 0:
Remaining flits: (0 flits)
Measured flits: (0 flits)
Class 0:
Remaining flits: (0 flits)
Measured flits: (0 flits)
Class 0:
Remaining flits: (0 flits)
Measured flits: (0 flits)
Class 0:
Remaining flits: (0 flits)
Measured flits: (0 flits)
Class 0:
Remaining flits: (0 flits)
Measured flits: (0 flits)
Class 0:
Remaining flits: (0 flits)
Measured flits: (0 flits)
Class 0:
Remaining flits: (0 flits)
Measured flits: (0 flits)
Class 0:
Remaining flits: (0 flits)
Measured flits: (0 flits)
Class 0:
Remaining flits: (0 flits)
Measured flits: (0 flits)
Class 0:
Remaining flits: (0 flits)
Measured flits: (0 flits)
Class 0:
Remaining flits: (0 flits)
Measured flits: (0 flits)
Class 0:
Remaining flits: (0 flits)
Measured flits: (0 flits)
Class 0:
Remaining flits: (0 flits)
Measured flits: (0 flits)
Class 0:
Remaining flits: (0 flits)
Measured flits: (0 flits)
Class 0:
Remaining flits: (0 flits)
Measured flits: (0 flits)
Class 0:
Remaining flits: (0 flits)
Measured flits: (0 flits)
Class 0:
Remaining flits: (0 flits)
Measured flits: (0 flits)
Class 0:
Remaining flits: (0 flits)
Measured flits: (0 flits)
Class 0:
Remaining flits: (0 flits)
Measured flits: (0 flits)
Class 0:
Remaining flits: (0 flits)
Measured flits: (0 flits)
Class 0:
Remaining flits: (0 flits)
Measured flits: (0 flits)
Class 0:
Remaining flits: (0 flits)
Measured flits: (0 flits)
Class 0:
Remaining flits: (0 flits)
Measured flits: (0 flits)
Class 0:
Remaining flits: (0 flits)
Measured flits: (0 flits)
Class 0:
Remaining flits: (0 flits)
Measured flits: (0 flits)
Class 0:
Remaining flits: (0 flits)
Measured flits: (0 flits)
Class 0:
Remaining flits: (0 flits)
Measured flits: (0 flits)
Class 0:
Remaining flits: (0 flits)
Measured flits: (0 flits)
Class 0:
Remaining flits: (0 flits)
Measured flits: (0 flits)
Class 0:
Remaining flits: (0 flits)
Measured flits: (0 flits)
Class 0:
Remaining flits: (0 flits)
Measured flits: (0 flits)
Class 0:
Remaining flits: (0 flits)
Measured flits: (0 flits)
Class 0:
Remaining flits: (0 flits)
Measured flits: (0 flits)
Class 0:
Remaining flits: (0 flits)
Measured flits: (0 flits)
Class 0:
Remaining flits: (0 flits)
Measured flits: (0 flits)
Class 0:
Remaining flits: (0 flits)
Measured flits: (0 flits)
Class 0:
Remaining flits: (0 flits)
Measured flits: (0 flits)
Class 0:
Remaining flits: (0 flits)
Measured flits: (0 flits)
Class 0:
Remaining flits: (0 flits)
Measured flits: (0 flits)
Class 0:
Remaining flits: (0 flits)
Measured flits: (0 flits)
Class 0:
Remaining flits: (0 flits)
Measured flits: (0 flits)
Time taken is 9000 cycles
====== Traffic class 0 ======

Total number of flits generated = 1572, changed lanes = 1406
Overall minimum packet latency = 8 (1 samples)
Overall average packet latency = 22.7497 (1 samples)
Overall maximum packet latency = 287 (1 samples)
Overall minimum network latency = 9 (1 samples)
Overall average network latency = 23.7497 (1 samples)
Overall maximum network latency = 288 (1 samples)
Overall minimum flit latency = 9 (1 samples)
Overall average flit latency = 23.7455 (1 samples)
Overall maximum flit latency = 288 (1 samples)
Overall minimum fragmentation = 0 (1 samples)
Overall average fragmentation = 0 (1 samples)
Overall maximum fragmentation = 0 (1 samples)
Overall minimum injected packet rate = 0.0462 (1 samples)
Overall average injected packet rate = 0.04975 (1 samples)
Overall maximum injected packet rate = 0.0522 (1 samples)
Overall minimum accepted packet rate = 0.0468 (1 samples)
Overall average accepted packet rate = 0.04975 (1 samples)
Overall maximum accepted packet rate = 0.0514 (1 samples)
Overall minimum injected flit rate = 0.0462 (1 samples)
Overall average injected flit rate = 0.04975 (1 samples)
Overall maximum injected flit rate = 0.0522 (1 samples)
Overall minimum accepted flit rate = 0.0468 (1 samples)
Overall average accepted flit rate = 0.04975 (1 samples)
Overall maximum accepted flit rate = 0.0514 (1 samples)
Overall average injected packet size = 1 (1 samples)
Overall average accepted packet size = 1 (1 samples)
Overall average hops = 2 (1 samples)
Overall throughput of the network (flits/cycle) = 0.3144
Overall throughput of the network (packets/cycle) = 0.3144
Total run time 2.64712
