make: Nothing to be done for 'all'.
Master: Running timer....
Master: Running SRC....
BEGIN Configuration File: ./examples/bitrev
// Topology

topology = torus;
k = 16;
n = 2;

// Routing
routing_function = dim_order;

// Flow control
num_vcs     = 4;
vc_buf_size = 4;
wait_for_tail_credit = 0;

// Router architecture
vc_allocator = islip;
sw_allocator = islip;
alloc_iters  = 1;

credit_delay   = 1;
routing_delay  = 1;
vc_alloc_delay = 1;
sw_alloc_delay = 1;

input_speedup     = 1;
output_speedup    = 1;
internal_speedup  = 1.0;

vc_busy_when_full = 0;

// Traffic
traffic = uniform;
packet_size = 1;

// Simulation
sim_type = throughput;

injection_rate = 0.05;

END Configuration File: ./examples/bitrev
===== Time: 1000 =====
Class 0:
Minimum packet latency = 8
Average packet latency = 118.432
Maximum packet latency = 399
Minimum network latency = 9
Average network latency = 119.432
Maximum network latency = 400
Slowest packet = 2138
Minimum flit latency = 9
Average flit latency = 119.432
Maximum flit latency = 400
Slowest flit = 2138
Minimum fragmentation = 0
Average fragmentation = 0
Maximum fragmentation = 0
Minimum injected packet rate = 0.032 (at node 166)
Average injected packet rate = 0.0500859
Maximum injected packet rate = 0.07 (at node 47)
Minimum accepted packet rate = 0.024 (at node 93)
Average accepted packet rate = 0.0439063
Maximum accepted packet rate = 0.064 (at node 80)
Minimum injected flit rate = 0.032 (at node 166)
Average injected flit rate = 0.0500859
Maximum injected flit rate = 0.07 (at node 47)
Minimum accepted flit rate = 0.024 (at node 93)
Average accepted flit rate = 0.0439063
Maximum accepted flit rate = 0.064 (at node 80)
Total number of injected packets = 12822
Total number of injected flits = 12822
Average injected packet length = 1
Total number of accepted packets = 11240
Total number of accepted flits = 11240
Average accepted packet length = 1
Total in-flight flits = 1582 (0 measured)
===== Time: 2000 =====
Class 0:
Minimum packet latency = 8
Average packet latency = 120.405
Maximum packet latency = 399
Minimum network latency = 9
Average network latency = 121.405
Maximum network latency = 400
Slowest packet = 2138
Minimum flit latency = 9
Average flit latency = 121.405
Maximum flit latency = 400
Slowest flit = 2138
Minimum fragmentation = 0
Average fragmentation = 0
Maximum fragmentation = 0
Minimum injected packet rate = 0.039 (at node 9)
Average injected packet rate = 0.0499551
Maximum injected packet rate = 0.065 (at node 135)
Minimum accepted packet rate = 0.0345 (at node 254)
Average accepted packet rate = 0.0468008
Maximum accepted packet rate = 0.061 (at node 78)
Minimum injected flit rate = 0.039 (at node 9)
Average injected flit rate = 0.0499551
Maximum injected flit rate = 0.065 (at node 135)
Minimum accepted flit rate = 0.0345 (at node 254)
Average accepted flit rate = 0.0468008
Maximum accepted flit rate = 0.061 (at node 78)
Total number of injected packets = 25577
Total number of injected flits = 25577
Average injected packet length = 1
Total number of accepted packets = 23962
Total number of accepted flits = 23962
Average accepted packet length = 1
Total in-flight flits = 1615 (0 measured)
===== Time: 3000 =====
Class 0:
Minimum packet latency = 8
Average packet latency = 121.904
Maximum packet latency = 307
Minimum network latency = 9
Average network latency = 122.904
Maximum network latency = 308
Slowest packet = 22524
Minimum flit latency = 9
Average flit latency = 122.904
Maximum flit latency = 308
Slowest flit = 22524
Minimum fragmentation = 0
Average fragmentation = 0
Maximum fragmentation = 0
Minimum injected packet rate = 0.035 (at node 27)
Average injected packet rate = 0.0504062
Maximum injected packet rate = 0.071 (at node 78)
Minimum accepted packet rate = 0.033 (at node 176)
Average accepted packet rate = 0.0505117
Maximum accepted packet rate = 0.067 (at node 113)
Minimum injected flit rate = 0.035 (at node 27)
Average injected flit rate = 0.0504062
Maximum injected flit rate = 0.071 (at node 78)
Minimum accepted flit rate = 0.033 (at node 176)
Average accepted flit rate = 0.0505117
Maximum accepted flit rate = 0.067 (at node 113)
Total number of injected packets = 12904
Total number of injected flits = 12904
Average injected packet length = 1
Total number of accepted packets = 12931
Total number of accepted flits = 12931
Average accepted packet length = 1
Total in-flight flits = 1588 (0 measured)
===== Time: 4000 =====
Class 0:
Minimum packet latency = 8
Average packet latency = 118.925
Maximum packet latency = 299
Minimum network latency = 9
Average network latency = 119.925
Maximum network latency = 300
Slowest packet = 44254
Minimum flit latency = 9
Average flit latency = 122.667
Maximum flit latency = 300
Slowest flit = 44254
Minimum fragmentation = 0
Average fragmentation = 0
Maximum fragmentation = 0
Minimum injected packet rate = 0.029 (at node 92)
Average injected packet rate = 0.0499531
Maximum injected packet rate = 0.073 (at node 165)
Minimum accepted packet rate = 0.029 (at node 110)
Average accepted packet rate = 0.0499453
Maximum accepted packet rate = 0.075 (at node 213)
Minimum injected flit rate = 0.029 (at node 92)
Average injected flit rate = 0.0499531
Maximum injected flit rate = 0.073 (at node 165)
Minimum accepted flit rate = 0.029 (at node 110)
Average accepted flit rate = 0.0499453
Maximum accepted flit rate = 0.075 (at node 213)
Total number of injected packets = 12788
Total number of injected flits = 12788
Average injected packet length = 1
Total number of accepted packets = 12786
Total number of accepted flits = 12786
Average accepted packet length = 1
Total in-flight flits = 1590 (1590 measured)
===== Time: 5000 =====
Class 0:
Minimum packet latency = 8
Average packet latency = 120.252
Maximum packet latency = 301
Minimum network latency = 9
Average network latency = 121.252
Maximum network latency = 302
Slowest packet = 57703
Minimum flit latency = 9
Average flit latency = 122.54
Maximum flit latency = 302
Slowest flit = 57703
Minimum fragmentation = 0
Average fragmentation = 0
Maximum fragmentation = 0
Minimum injected packet rate = 0.0345 (at node 195)
Average injected packet rate = 0.049959
Maximum injected packet rate = 0.0635 (at node 165)
Minimum accepted packet rate = 0.036 (at node 110)
Average accepted packet rate = 0.0499727
Maximum accepted packet rate = 0.067 (at node 213)
Minimum injected flit rate = 0.0345 (at node 195)
Average injected flit rate = 0.049959
Maximum injected flit rate = 0.0635 (at node 165)
Minimum accepted flit rate = 0.036 (at node 110)
Average accepted flit rate = 0.0499727
Maximum accepted flit rate = 0.067 (at node 213)
Total number of injected packets = 25579
Total number of injected flits = 25579
Average injected packet length = 1
Total number of accepted packets = 25586
Total number of accepted flits = 25586
Average accepted packet length = 1
Total in-flight flits = 1581 (1581 measured)
===== Time: 6000 =====
Class 0:
Minimum packet latency = 8
Average packet latency = 120.717
Maximum packet latency = 301
Minimum network latency = 9
Average network latency = 121.717
Maximum network latency = 302
Slowest packet = 57703
Minimum flit latency = 9
Average flit latency = 122.552
Maximum flit latency = 302
Slowest flit = 57703
Minimum fragmentation = 0
Average fragmentation = 0
Maximum fragmentation = 0
Minimum injected packet rate = 0.0386667 (at node 92)
Average injected packet rate = 0.0501523
Maximum injected packet rate = 0.0596667 (at node 102)
Minimum accepted packet rate = 0.038 (at node 188)
Average accepted packet rate = 0.0502656
Maximum accepted packet rate = 0.0626667 (at node 213)
Minimum injected flit rate = 0.0386667 (at node 92)
Average injected flit rate = 0.0501523
Maximum injected flit rate = 0.0596667 (at node 102)
Minimum accepted flit rate = 0.038 (at node 188)
Average accepted flit rate = 0.0502656
Maximum accepted flit rate = 0.0626667 (at node 213)
Total number of injected packets = 38517
Total number of injected flits = 38517
Average injected packet length = 1
Total number of accepted packets = 38604
Total number of accepted flits = 38604
Average accepted packet length = 1
Total in-flight flits = 1501 (1501 measured)
Draining remaining packets ...
Class 0:
Remaining flits: 74022 74267 74274 74281 74299 74333 74414 74445 74481 74510 [...] (1357 flits)
Measured flits: 74022 74267 74274 74281 74299 74333 74414 74445 74481 74510 [...] (1357 flits)
Class 0:
Remaining flits: 74022 74281 74414 74575 74587 74592 74628 74636 74640 74671 [...] (1236 flits)
Measured flits: 74022 74281 74414 74575 74587 74592 74628 74636 74640 74671 [...] (1236 flits)
Class 0:
Remaining flits: 74022 74592 74628 74640 74671 74684 74688 74693 74756 74779 [...] (1111 flits)
Measured flits: 74022 74592 74628 74640 74671 74684 74688 74693 74756 74779 [...] (1111 flits)
Class 0:
Remaining flits: 74592 74640 74671 74684 74688 74756 74779 74826 74873 74882 [...] (986 flits)
Measured flits: 74592 74640 74671 74684 74688 74756 74779 74826 74873 74882 [...] (986 flits)
Class 0:
Remaining flits: 74671 74779 74873 74882 74885 74909 74963 75011 75031 75057 [...] (873 flits)
Measured flits: 74671 74779 74873 74882 74885 74909 74963 75011 75031 75057 [...] (873 flits)
Class 0:
Remaining flits: 74671 74779 74873 74882 74885 74909 74963 75057 75160 75183 [...] (751 flits)
Measured flits: 74671 74779 74873 74882 74885 74909 74963 75057 75160 75183 [...] (751 flits)
Class 0:
Remaining flits: 74671 74882 74885 74909 75160 75183 75208 75231 75245 75282 [...] (644 flits)
Measured flits: 74671 74882 74885 74909 75160 75183 75208 75231 75245 75282 [...] (644 flits)
Class 0:
Remaining flits: 74882 74885 75183 75208 75245 75325 75360 75414 75441 75517 [...] (535 flits)
Measured flits: 74882 74885 75183 75208 75245 75325 75360 75414 75441 75517 [...] (535 flits)
Class 0:
Remaining flits: 74882 75183 75208 75245 75360 75414 75441 75517 75573 75615 [...] (447 flits)
Measured flits: 74882 75183 75208 75245 75360 75414 75441 75517 75573 75615 [...] (447 flits)
Class 0:
Remaining flits: 75245 75441 75517 75573 75615 75618 75626 75670 75681 75692 [...] (351 flits)
Measured flits: 75245 75441 75517 75573 75615 75618 75626 75670 75681 75692 [...] (351 flits)
Class 0:
Remaining flits: 75245 75441 75517 75573 75626 75681 75698 75729 75730 75755 [...] (265 flits)
Measured flits: 75245 75441 75517 75573 75626 75681 75698 75729 75730 75755 [...] (265 flits)
Class 0:
Remaining flits: 75441 75517 75573 75626 75681 75698 75729 75766 75850 75909 [...] (199 flits)
Measured flits: 75441 75517 75573 75626 75681 75698 75729 75766 75850 75909 [...] (199 flits)
Class 0:
Remaining flits: 75441 75517 75626 75681 75925 76142 76170 76180 76207 76221 [...] (139 flits)
Measured flits: 75441 75517 75626 75681 75925 76142 76170 76180 76207 76221 [...] (139 flits)
Class 0:
Remaining flits: 75626 75925 76142 76207 76221 76255 76363 76393 76416 76449 [...] (94 flits)
Measured flits: 75626 75925 76142 76207 76221 76255 76363 76393 76416 76449 [...] (94 flits)
Class 0:
Remaining flits: 76255 76363 76416 76486 76624 76628 76636 76641 76684 76698 [...] (64 flits)
Measured flits: 76255 76363 76416 76486 76624 76628 76636 76641 76684 76698 [...] (64 flits)
Class 0:
Remaining flits: 76486 76624 76641 76684 76702 76709 76749 76751 76756 76762 [...] (43 flits)
Measured flits: 76486 76624 76641 76684 76702 76709 76749 76751 76756 76762 [...] (43 flits)
Class 0:
Remaining flits: 76641 76684 76702 76749 76756 76765 76790 76828 76855 76878 [...] (21 flits)
Measured flits: 76641 76684 76702 76749 76756 76765 76790 76828 76855 76878 [...] (21 flits)
Class 0:
Remaining flits: 76641 76765 76878 76887 76898 76905 76916 76962 76975 (9 flits)
Measured flits: 76641 76765 76878 76887 76898 76905 76916 76962 76975 (9 flits)
Class 0:
Remaining flits: 76878 76887 76916 (3 flits)
Measured flits: 76878 76887 76916 (3 flits)
Class 0:
Remaining flits: 76916 (1 flits)
Measured flits: 76916 (1 flits)
Class 0:
Remaining flits: (0 flits)
Measured flits: (0 flits)
Class 0:
Remaining flits: (0 flits)
Measured flits: (0 flits)
Class 0:
Remaining flits: (0 flits)
Measured flits: (0 flits)
Class 0:
Remaining flits: (0 flits)
Measured flits: (0 flits)
Class 0:
Remaining flits: (0 flits)
Measured flits: (0 flits)
Class 0:
Remaining flits: (0 flits)
Measured flits: (0 flits)
Class 0:
Remaining flits: (0 flits)
Measured flits: (0 flits)
Class 0:
Remaining flits: (0 flits)
Measured flits: (0 flits)
Class 0:
Remaining flits: (0 flits)
Measured flits: (0 flits)
Class 0:
Remaining flits: (0 flits)
Measured flits: (0 flits)
Class 0:
Remaining flits: (0 flits)
Measured flits: (0 flits)
Class 0:
Remaining flits: (0 flits)
Measured flits: (0 flits)
Class 0:
Remaining flits: (0 flits)
Measured flits: (0 flits)
Class 0:
Remaining flits: (0 flits)
Measured flits: (0 flits)
Class 0:
Remaining flits: (0 flits)
Measured flits: (0 flits)
Class 0:
Remaining flits: (0 flits)
Measured flits: (0 flits)
Class 0:
Remaining flits: (0 flits)
Measured flits: (0 flits)
Class 0:
Remaining flits: (0 flits)
Measured flits: (0 flits)
Class 0:
Remaining flits: (0 flits)
Measured flits: (0 flits)
Class 0:
Remaining flits: (0 flits)
Measured flits: (0 flits)
Class 0:
Remaining flits: (0 flits)
Measured flits: (0 flits)
Class 0:
Remaining flits: (0 flits)
Measured flits: (0 flits)
Class 0:
Remaining flits: (0 flits)
Measured flits: (0 flits)
Class 0:
Remaining flits: (0 flits)
Measured flits: (0 flits)
Class 0:
Remaining flits: (0 flits)
Measured flits: (0 flits)
Class 0:
Remaining flits: (0 flits)
Measured flits: (0 flits)
Class 0:
Remaining flits: (0 flits)
Measured flits: (0 flits)
Class 0:
Remaining flits: (0 flits)
Measured flits: (0 flits)
Class 0:
Remaining flits: (0 flits)
Measured flits: (0 flits)
Class 0:
Remaining flits: (0 flits)
Measured flits: (0 flits)
Class 0:
Remaining flits: (0 flits)
Measured flits: (0 flits)
Class 0:
Remaining flits: (0 flits)
Measured flits: (0 flits)
Class 0:
Remaining flits: (0 flits)
Measured flits: (0 flits)
Class 0:
Remaining flits: (0 flits)
Measured flits: (0 flits)
Class 0:
Remaining flits: (0 flits)
Measured flits: (0 flits)
Class 0:
Remaining flits: (0 flits)
Measured flits: (0 flits)
Class 0:
Remaining flits: (0 flits)
Measured flits: (0 flits)
Class 0:
Remaining flits: (0 flits)
Measured flits: (0 flits)
Class 0:
Remaining flits: (0 flits)
Measured flits: (0 flits)
Class 0:
Remaining flits: (0 flits)
Measured flits: (0 flits)
Class 0:
Remaining flits: (0 flits)
Measured flits: (0 flits)
Class 0:
Remaining flits: (0 flits)
Measured flits: (0 flits)
Class 0:
Remaining flits: (0 flits)
Measured flits: (0 flits)
Class 0:
Remaining flits: (0 flits)
Measured flits: (0 flits)
Class 0:
Remaining flits: (0 flits)
Measured flits: (0 flits)
Class 0:
Remaining flits: (0 flits)
Measured flits: (0 flits)
Class 0:
Remaining flits: (0 flits)
Measured flits: (0 flits)
Class 0:
Remaining flits: (0 flits)
Measured flits: (0 flits)
Class 0:
Remaining flits: (0 flits)
Measured flits: (0 flits)
Class 0:
Remaining flits: (0 flits)
Measured flits: (0 flits)
Class 0:
Remaining flits: (0 flits)
Measured flits: (0 flits)
Class 0:
Remaining flits: (0 flits)
Measured flits: (0 flits)
Class 0:
Remaining flits: (0 flits)
Measured flits: (0 flits)
Class 0:
Remaining flits: (0 flits)
Measured flits: (0 flits)
Class 0:
Remaining flits: (0 flits)
Measured flits: (0 flits)
Class 0:
Remaining flits: (0 flits)
Measured flits: (0 flits)
Class 0:
Remaining flits: (0 flits)
Measured flits: (0 flits)
Class 0:
Remaining flits: (0 flits)
Measured flits: (0 flits)
Class 0:
Remaining flits: (0 flits)
Measured flits: (0 flits)
Class 0:
Remaining flits: (0 flits)
Measured flits: (0 flits)
Class 0:
Remaining flits: (0 flits)
Measured flits: (0 flits)
Class 0:
Remaining flits: (0 flits)
Measured flits: (0 flits)
Class 0:
Remaining flits: (0 flits)
Measured flits: (0 flits)
Class 0:
Remaining flits: (0 flits)
Measured flits: (0 flits)
Class 0:
Remaining flits: (0 flits)
Measured flits: (0 flits)
Class 0:
Remaining flits: (0 flits)
Measured flits: (0 flits)
Class 0:
Remaining flits: (0 flits)
Measured flits: (0 flits)
Class 0:
Remaining flits: (0 flits)
Measured flits: (0 flits)
Class 0:
Remaining flits: (0 flits)
Measured flits: (0 flits)
Class 0:
Remaining flits: (0 flits)
Measured flits: (0 flits)
Class 0:
Remaining flits: (0 flits)
Measured flits: (0 flits)
Class 0:
Remaining flits: (0 flits)
Measured flits: (0 flits)
Class 0:
Remaining flits: (0 flits)
Measured flits: (0 flits)
Class 0:
Remaining flits: (0 flits)
Measured flits: (0 flits)
Class 0:
Remaining flits: (0 flits)
Measured flits: (0 flits)
Class 0:
Remaining flits: (0 flits)
Measured flits: (0 flits)
Class 0:
Remaining flits: (0 flits)
Measured flits: (0 flits)
Class 0:
Remaining flits: (0 flits)
Measured flits: (0 flits)
Class 0:
Remaining flits: (0 flits)
Measured flits: (0 flits)
Class 0:
Remaining flits: (0 flits)
Measured flits: (0 flits)
Class 0:
Remaining flits: (0 flits)
Measured flits: (0 flits)
Time taken is 7000 cycles
====== Traffic class 0 ======

Total number of flits generated = 76998, changed lanes = 76719
Overall minimum packet latency = 8 (1 samples)
Overall average packet latency = 121.296 (1 samples)
Overall maximum packet latency = 301 (1 samples)
Overall minimum network latency = 9 (1 samples)
Overall average network latency = 122.296 (1 samples)
Overall maximum network latency = 302 (1 samples)
Overall minimum flit latency = 9 (1 samples)
Overall average flit latency = 123.076 (1 samples)
Overall maximum flit latency = 302 (1 samples)
Overall minimum fragmentation = 0 (1 samples)
Overall average fragmentation = 0 (1 samples)
Overall maximum fragmentation = 0 (1 samples)
Overall minimum injected packet rate = 0.0386667 (1 samples)
Overall average injected packet rate = 0.0501523 (1 samples)
Overall maximum injected packet rate = 0.0596667 (1 samples)
Overall minimum accepted packet rate = 0.038 (1 samples)
Overall average accepted packet rate = 0.0502656 (1 samples)
Overall maximum accepted packet rate = 0.0626667 (1 samples)
Overall minimum injected flit rate = 0.0386667 (1 samples)
Overall average injected flit rate = 0.0501523 (1 samples)
Overall maximum injected flit rate = 0.0596667 (1 samples)
Overall minimum accepted flit rate = 0.038 (1 samples)
Overall average accepted flit rate = 0.0502656 (1 samples)
Overall maximum accepted flit rate = 0.0626667 (1 samples)
Overall average injected packet size = 1 (1 samples)
Overall average accepted packet size = 1 (1 samples)
Overall average hops = 9.00369 (1 samples)
Overall throughput of the network (flits/cycle) = 25.666
Overall throughput of the network (packets/cycle) = 25.666
Total run time 288.337
