make: Nothing to be done for 'all'.
Master: Running timer....
Master: Running SRC....
BEGIN Configuration File: ./examples/bitrev
// Topology

topology = mesh;
k = 4;
n = 2;

// Routing
routing_function = dor;

// Flow control
num_vcs     = 4;
vc_buf_size = 4;
wait_for_tail_credit = 0;

// Router architecture
vc_allocator = islip;
sw_allocator = islip;
alloc_iters  = 1;

credit_delay   = 1;
routing_delay  = 1;
vc_alloc_delay = 1;
sw_alloc_delay = 1;

input_speedup     = 1;
output_speedup    = 1;
internal_speedup  = 1.0;

vc_busy_when_full = 0;

// Traffic
traffic = uniform;
packet_size = 1;

// Simulation
sim_type = throughput;

injection_rate = 0.39;

END Configuration File: ./examples/bitrev
===== Time: 1000 =====
Class 0:
Minimum packet latency = 9
Average packet latency = 325.375
Maximum packet latency = 652
Minimum network latency = 10
Average network latency = 148.296
Maximum network latency = 329
Slowest packet = 577
Minimum flit latency = 10
Average flit latency = 148.296
Maximum flit latency = 329
Slowest flit = 1753
Minimum fragmentation = 0
Average fragmentation = 0
Maximum fragmentation = 0
Minimum injected packet rate = 0.171 (at node 2)
Average injected packet rate = 0.179625
Maximum injected packet rate = 0.182 (at node 7)
Minimum accepted packet rate = 0.133 (at node 14)
Average accepted packet rate = 0.152562
Maximum accepted packet rate = 0.164 (at node 8)
Minimum injected flit rate = 0.171 (at node 2)
Average injected flit rate = 0.179625
Maximum injected flit rate = 0.182 (at node 7)
Minimum accepted flit rate = 0.133 (at node 14)
Average accepted flit rate = 0.152562
Maximum accepted flit rate = 0.164 (at node 8)
Total number of injected packets = 2874
Total number of injected flits = 2874
Average injected packet length = 1
Total number of accepted packets = 2441
Total number of accepted flits = 2441
Average accepted packet length = 1
Total in-flight flits = 448 (0 measured)
===== Time: 2000 =====
Class 0:
Minimum packet latency = 9
Average packet latency = 616.967
Maximum packet latency = 1266
Minimum network latency = 10
Average network latency = 159.673
Maximum network latency = 369
Slowest packet = 577
Minimum flit latency = 10
Average flit latency = 159.673
Maximum flit latency = 369
Slowest flit = 3047
Minimum fragmentation = 0
Average fragmentation = 0
Maximum fragmentation = 0
Minimum injected packet rate = 0.1645 (at node 2)
Average injected packet rate = 0.170969
Maximum injected packet rate = 0.174 (at node 3)
Minimum accepted packet rate = 0.1425 (at node 14)
Average accepted packet rate = 0.156812
Maximum accepted packet rate = 0.169 (at node 8)
Minimum injected flit rate = 0.1645 (at node 2)
Average injected flit rate = 0.170969
Maximum injected flit rate = 0.174 (at node 3)
Minimum accepted flit rate = 0.1425 (at node 14)
Average accepted flit rate = 0.156812
Maximum accepted flit rate = 0.169 (at node 8)
Total number of injected packets = 5471
Total number of injected flits = 5471
Average injected packet length = 1
Total number of accepted packets = 5018
Total number of accepted flits = 5018
Average accepted packet length = 1
Total in-flight flits = 468 (0 measured)
===== Time: 3000 =====
Class 0:
Minimum packet latency = 1109
Average packet latency = 1476.44
Maximum packet latency = 1908
Minimum network latency = 89
Average network latency = 173.485
Maximum network latency = 447
Slowest packet = 4917
Minimum flit latency = 89
Average flit latency = 173.485
Maximum flit latency = 447
Slowest flit = 6875
Minimum fragmentation = 0
Average fragmentation = 0
Maximum fragmentation = 0
Minimum injected packet rate = 0.144 (at node 9)
Average injected packet rate = 0.1615
Maximum injected packet rate = 0.167 (at node 6)
Minimum accepted packet rate = 0.149 (at node 4)
Average accepted packet rate = 0.161875
Maximum accepted packet rate = 0.174 (at node 0)
Minimum injected flit rate = 0.144 (at node 9)
Average injected flit rate = 0.1615
Maximum injected flit rate = 0.167 (at node 6)
Minimum accepted flit rate = 0.149 (at node 4)
Average accepted flit rate = 0.161875
Maximum accepted flit rate = 0.174 (at node 0)
Total number of injected packets = 2584
Total number of injected flits = 2584
Average injected packet length = 1
Total number of accepted packets = 2590
Total number of accepted flits = 2590
Average accepted packet length = 1
Total in-flight flits = 460 (0 measured)
===== Time: 4000 =====
Class 0:
Minimum packet latency = 1686
Average packet latency = 2116.87
Maximum packet latency = 2527
Minimum network latency = 92
Average network latency = 177.674
Maximum network latency = 412
Slowest packet = 8074
Minimum flit latency = 92
Average flit latency = 181.729
Maximum flit latency = 412
Slowest flit = 9368
Minimum fragmentation = 0
Average fragmentation = 0
Maximum fragmentation = 0
Minimum injected packet rate = 0.13 (at node 9)
Average injected packet rate = 0.158125
Maximum injected packet rate = 0.167 (at node 0)
Minimum accepted packet rate = 0.125 (at node 4)
Average accepted packet rate = 0.157562
Maximum accepted packet rate = 0.183 (at node 7)
Minimum injected flit rate = 0.13 (at node 9)
Average injected flit rate = 0.158125
Maximum injected flit rate = 0.167 (at node 0)
Minimum accepted flit rate = 0.125 (at node 4)
Average accepted flit rate = 0.157562
Maximum accepted flit rate = 0.183 (at node 7)
Total number of injected packets = 2530
Total number of injected flits = 2530
Average injected packet length = 1
Total number of accepted packets = 2521
Total number of accepted flits = 2521
Average accepted packet length = 1
Total in-flight flits = 469 (469 measured)
===== Time: 5000 =====
Class 0:
Minimum packet latency = 1686
Average packet latency = 2414.66
Maximum packet latency = 3118
Minimum network latency = 92
Average network latency = 177.684
Maximum network latency = 452
Slowest packet = 8074
Minimum flit latency = 92
Average flit latency = 179.679
Maximum flit latency = 452
Slowest flit = 10586
Minimum fragmentation = 0
Average fragmentation = 0
Maximum fragmentation = 0
Minimum injected packet rate = 0.148 (at node 9)
Average injected packet rate = 0.160594
Maximum injected packet rate = 0.1665 (at node 3)
Minimum accepted packet rate = 0.138 (at node 4)
Average accepted packet rate = 0.160031
Maximum accepted packet rate = 0.178 (at node 7)
Minimum injected flit rate = 0.148 (at node 9)
Average injected flit rate = 0.160594
Maximum injected flit rate = 0.1665 (at node 3)
Minimum accepted flit rate = 0.138 (at node 4)
Average accepted flit rate = 0.160031
Maximum accepted flit rate = 0.178 (at node 7)
Total number of injected packets = 5139
Total number of injected flits = 5139
Average injected packet length = 1
Total number of accepted packets = 5121
Total number of accepted flits = 5121
Average accepted packet length = 1
Total in-flight flits = 481 (481 measured)
===== Time: 6000 =====
Class 0:
Minimum packet latency = 1686
Average packet latency = 2703.37
Maximum packet latency = 3722
Minimum network latency = 92
Average network latency = 180.71
Maximum network latency = 462
Slowest packet = 8074
Minimum flit latency = 92
Average flit latency = 181.861
Maximum flit latency = 462
Slowest flit = 14369
Minimum fragmentation = 0
Average fragmentation = 0
Maximum fragmentation = 0
Minimum injected packet rate = 0.153667 (at node 9)
Average injected packet rate = 0.160583
Maximum injected packet rate = 0.166333 (at node 3)
Minimum accepted packet rate = 0.141 (at node 4)
Average accepted packet rate = 0.15975
Maximum accepted packet rate = 0.174667 (at node 7)
Minimum injected flit rate = 0.153667 (at node 9)
Average injected flit rate = 0.160583
Maximum injected flit rate = 0.166333 (at node 3)
Minimum accepted flit rate = 0.141 (at node 4)
Average accepted flit rate = 0.15975
Maximum accepted flit rate = 0.174667 (at node 7)
Total number of injected packets = 7708
Total number of injected flits = 7708
Average injected packet length = 1
Total number of accepted packets = 7668
Total number of accepted flits = 7668
Average accepted packet length = 1
Total in-flight flits = 503 (503 measured)
Draining remaining packets ...
Class 0:
Remaining flits: 14626 14655 14847 14893 14920 14938 14941 14947 14964 14978 [...] (467 flits)
Measured flits: 14626 14655 14847 14893 14920 14938 14941 14947 14964 14978 [...] (467 flits)
Class 0:
Remaining flits: 14626 14655 14847 14920 14941 14964 14978 14979 14982 14996 [...] (439 flits)
Measured flits: 14626 14655 14847 14920 14941 14964 14978 14979 14982 14996 [...] (439 flits)
Class 0:
Remaining flits: 14626 14920 14941 14964 14978 14979 14982 14996 15009 15010 [...] (414 flits)
Measured flits: 14626 14920 14941 14964 14978 14979 14982 14996 15009 15010 [...] (414 flits)
Class 0:
Remaining flits: 14626 14920 14941 14964 14996 15010 15053 15054 15073 15076 [...] (385 flits)
Measured flits: 14626 14920 14941 14964 14996 15010 15053 15054 15073 15076 [...] (385 flits)
Class 0:
Remaining flits: 14626 14920 14964 15010 15054 15073 15076 15078 15088 15110 [...] (357 flits)
Measured flits: 14626 14920 14964 15010 15054 15073 15076 15078 15088 15110 [...] (357 flits)
Class 0:
Remaining flits: 14626 14920 14964 15010 15054 15073 15078 15088 15110 15123 [...] (337 flits)
Measured flits: 14626 14920 14964 15010 15054 15073 15078 15088 15110 15123 [...] (337 flits)
Class 0:
Remaining flits: 14920 14964 15010 15054 15073 15088 15110 15123 15131 15139 [...] (319 flits)
Measured flits: 14920 14964 15010 15054 15073 15088 15110 15123 15131 15139 [...] (319 flits)
Class 0:
Remaining flits: 14964 15010 15054 15073 15110 15123 15131 15139 15166 15174 [...] (290 flits)
Measured flits: 14964 15010 15054 15073 15110 15123 15131 15139 15166 15174 [...] (290 flits)
Class 0:
Remaining flits: 14964 15010 15054 15073 15110 15123 15131 15139 15166 15174 [...] (265 flits)
Measured flits: 14964 15010 15054 15073 15110 15123 15131 15139 15166 15174 [...] (265 flits)
Class 0:
Remaining flits: 15010 15054 15073 15110 15131 15139 15166 15187 15217 15226 [...] (242 flits)
Measured flits: 15010 15054 15073 15110 15131 15139 15166 15187 15217 15226 [...] (242 flits)
Class 0:
Remaining flits: 15010 15054 15073 15110 15131 15166 15187 15226 15237 15249 [...] (220 flits)
Measured flits: 15010 15054 15073 15110 15131 15166 15187 15226 15237 15249 [...] (220 flits)
Class 0:
Remaining flits: 15010 15054 15073 15110 15131 15166 15187 15226 15237 15268 [...] (194 flits)
Measured flits: 15010 15054 15073 15110 15131 15166 15187 15226 15237 15268 [...] (194 flits)
Class 0:
Remaining flits: 15010 15054 15073 15110 15131 15166 15226 15237 15268 15324 [...] (176 flits)
Measured flits: 15010 15054 15073 15110 15131 15166 15226 15237 15268 15324 [...] (176 flits)
Class 0:
Remaining flits: 15010 15054 15073 15110 15131 15226 15237 15324 15343 15345 [...] (158 flits)
Measured flits: 15010 15054 15073 15110 15131 15226 15237 15324 15343 15345 [...] (158 flits)
Class 0:
Remaining flits: 15010 15073 15131 15226 15237 15324 15343 15345 15351 15377 [...] (140 flits)
Measured flits: 15010 15073 15131 15226 15237 15324 15343 15345 15351 15377 [...] (140 flits)
Class 0:
Remaining flits: 15010 15131 15226 15237 15324 15343 15345 15351 15377 15400 [...] (118 flits)
Measured flits: 15010 15131 15226 15237 15324 15343 15345 15351 15377 15400 [...] (118 flits)
Class 0:
Remaining flits: 15010 15131 15226 15237 15324 15343 15351 15377 15400 15448 [...] (99 flits)
Measured flits: 15010 15131 15226 15237 15324 15343 15351 15377 15400 15448 [...] (99 flits)
Class 0:
Remaining flits: 15131 15226 15237 15324 15343 15351 15377 15400 15448 15449 [...] (88 flits)
Measured flits: 15131 15226 15237 15324 15343 15351 15377 15400 15448 15449 [...] (88 flits)
Class 0:
Remaining flits: 15131 15226 15324 15351 15377 15400 15448 15449 15470 15500 [...] (72 flits)
Measured flits: 15131 15226 15324 15351 15377 15400 15448 15449 15470 15500 [...] (72 flits)
Class 0:
Remaining flits: 15131 15226 15324 15351 15400 15448 15449 15470 15500 15512 [...] (59 flits)
Measured flits: 15131 15226 15324 15351 15400 15448 15449 15470 15500 15512 [...] (59 flits)
Class 0:
Remaining flits: 15226 15324 15351 15400 15448 15449 15500 15512 15514 15533 [...] (51 flits)
Measured flits: 15226 15324 15351 15400 15448 15449 15500 15512 15514 15533 [...] (51 flits)
Class 0:
Remaining flits: 15226 15324 15351 15400 15448 15500 15512 15514 15533 15553 [...] (43 flits)
Measured flits: 15226 15324 15351 15400 15448 15500 15512 15514 15533 15553 [...] (43 flits)
Class 0:
Remaining flits: 15226 15400 15448 15514 15533 15553 15565 15568 15591 15594 [...] (35 flits)
Measured flits: 15226 15400 15448 15514 15533 15553 15565 15568 15591 15594 [...] (35 flits)
Class 0:
Remaining flits: 15448 15533 15553 15565 15568 15594 15609 15638 15648 15652 [...] (28 flits)
Measured flits: 15448 15533 15553 15565 15568 15594 15609 15638 15648 15652 [...] (28 flits)
Class 0:
Remaining flits: 15448 15533 15553 15565 15594 15609 15638 15648 15652 15668 [...] (26 flits)
Measured flits: 15448 15533 15553 15565 15594 15609 15638 15648 15652 15668 [...] (26 flits)
Class 0:
Remaining flits: 15553 15565 15594 15609 15638 15648 15652 15668 15696 15698 [...] (22 flits)
Measured flits: 15553 15565 15594 15609 15638 15648 15652 15668 15696 15698 [...] (22 flits)
Class 0:
Remaining flits: 15565 15594 15609 15648 15652 15696 15698 15720 15735 15752 [...] (18 flits)
Measured flits: 15565 15594 15609 15648 15652 15696 15698 15720 15735 15752 [...] (18 flits)
Class 0:
Remaining flits: 15565 15609 15648 15652 15696 15698 15720 15735 15752 15754 [...] (17 flits)
Measured flits: 15565 15609 15648 15652 15696 15698 15720 15735 15752 15754 [...] (17 flits)
Class 0:
Remaining flits: 15565 15648 15652 15696 15698 15735 15752 15754 15765 15770 [...] (14 flits)
Measured flits: 15565 15648 15652 15696 15698 15735 15752 15754 15765 15770 [...] (14 flits)
Class 0:
Remaining flits: 15648 15696 15735 15752 15754 15765 15770 15773 15774 15777 [...] (11 flits)
Measured flits: 15648 15696 15735 15752 15754 15765 15770 15773 15774 15777 [...] (11 flits)
Class 0:
Remaining flits: 15648 15696 15735 15752 15754 15765 15770 15773 15774 15777 [...] (11 flits)
Measured flits: 15648 15696 15735 15752 15754 15765 15770 15773 15774 15777 [...] (11 flits)
Class 0:
Remaining flits: 15648 15735 15752 15765 15770 15773 15774 15777 15778 (9 flits)
Measured flits: 15648 15735 15752 15765 15770 15773 15774 15777 15778 (9 flits)
Class 0:
Remaining flits: 15648 15735 15752 15765 15770 15773 15774 15777 15778 (9 flits)
Measured flits: 15648 15735 15752 15765 15770 15773 15774 15777 15778 (9 flits)
Class 0:
Remaining flits: 15648 15735 15752 15765 15770 15773 15774 15777 15778 (9 flits)
Measured flits: 15648 15735 15752 15765 15770 15773 15774 15777 15778 (9 flits)
Class 0:
Remaining flits: 15648 15735 15752 15765 15770 15773 15774 15777 15778 (9 flits)
Measured flits: 15648 15735 15752 15765 15770 15773 15774 15777 15778 (9 flits)
Class 0:
Remaining flits: 15648 15735 15752 15765 15770 15773 15774 15777 15778 (9 flits)
Measured flits: 15648 15735 15752 15765 15770 15773 15774 15777 15778 (9 flits)
Class 0:
Remaining flits: 15648 15735 15752 15765 15770 15773 15774 15777 15778 (9 flits)
Measured flits: 15648 15735 15752 15765 15770 15773 15774 15777 15778 (9 flits)
Class 0:
Remaining flits: 15648 15735 15752 15765 15770 15773 15774 15777 15778 (9 flits)
Measured flits: 15648 15735 15752 15765 15770 15773 15774 15777 15778 (9 flits)
Class 0:
Remaining flits: 15648 15735 15752 15765 15770 15773 15774 15777 15778 (9 flits)
Measured flits: 15648 15735 15752 15765 15770 15773 15774 15777 15778 (9 flits)
Class 0:
Remaining flits: 15648 15735 15752 15765 15770 15773 15774 15777 15778 (9 flits)
Measured flits: 15648 15735 15752 15765 15770 15773 15774 15777 15778 (9 flits)
Class 0:
Remaining flits: 15648 15735 15752 15765 15770 15773 15774 15777 15778 (9 flits)
Measured flits: 15648 15735 15752 15765 15770 15773 15774 15777 15778 (9 flits)
Class 0:
Remaining flits: 15648 15735 15752 15765 15770 15773 15774 15777 15778 (9 flits)
Measured flits: 15648 15735 15752 15765 15770 15773 15774 15777 15778 (9 flits)
Class 0:
Remaining flits: 15648 15735 15752 15765 15770 15773 15774 15777 15778 (9 flits)
Measured flits: 15648 15735 15752 15765 15770 15773 15774 15777 15778 (9 flits)
Class 0:
Remaining flits: 15648 15735 15752 15765 15770 15773 15774 15777 15778 (9 flits)
Measured flits: 15648 15735 15752 15765 15770 15773 15774 15777 15778 (9 flits)
Class 0:
Remaining flits: 15648 15735 15752 15765 15770 15773 15774 15777 15778 (9 flits)
Measured flits: 15648 15735 15752 15765 15770 15773 15774 15777 15778 (9 flits)
Class 0:
Remaining flits: 15648 15735 15752 15765 15770 15773 15774 15777 15778 (9 flits)
Measured flits: 15648 15735 15752 15765 15770 15773 15774 15777 15778 (9 flits)
Class 0:
Remaining flits: 15648 15735 15752 15765 15770 15773 15774 15777 15778 (9 flits)
Measured flits: 15648 15735 15752 15765 15770 15773 15774 15777 15778 (9 flits)
Class 0:
Remaining flits: 15648 15735 15752 15765 15770 15773 15774 15777 15778 (9 flits)
Measured flits: 15648 15735 15752 15765 15770 15773 15774 15777 15778 (9 flits)
Class 0:
Remaining flits: 15648 15735 15752 15765 15770 15773 15774 15777 15778 (9 flits)
Measured flits: 15648 15735 15752 15765 15770 15773 15774 15777 15778 (9 flits)
Class 0:
Remaining flits: 15648 15735 15752 15765 15770 15773 15774 15777 15778 (9 flits)
Measured flits: 15648 15735 15752 15765 15770 15773 15774 15777 15778 (9 flits)
Class 0:
Remaining flits: 15648 15735 15752 15765 15770 15773 15774 15777 15778 (9 flits)
Measured flits: 15648 15735 15752 15765 15770 15773 15774 15777 15778 (9 flits)
Class 0:
Remaining flits: 15648 15735 15752 15765 15770 15773 15774 15777 15778 (9 flits)
Measured flits: 15648 15735 15752 15765 15770 15773 15774 15777 15778 (9 flits)
Class 0:
Remaining flits: 15648 15735 15752 15765 15770 15773 15774 15777 15778 (9 flits)
Measured flits: 15648 15735 15752 15765 15770 15773 15774 15777 15778 (9 flits)
Class 0:
Remaining flits: 15648 15735 15752 15765 15770 15773 15774 15777 15778 (9 flits)
Measured flits: 15648 15735 15752 15765 15770 15773 15774 15777 15778 (9 flits)
Class 0:
Remaining flits: 15648 15735 15752 15765 15770 15773 15774 15777 15778 (9 flits)
Measured flits: 15648 15735 15752 15765 15770 15773 15774 15777 15778 (9 flits)
Class 0:
Remaining flits: 15648 15735 15752 15765 15770 15773 15774 15777 15778 (9 flits)
Measured flits: 15648 15735 15752 15765 15770 15773 15774 15777 15778 (9 flits)
Class 0:
Remaining flits: 15648 15735 15752 15765 15770 15773 15774 15777 15778 (9 flits)
Measured flits: 15648 15735 15752 15765 15770 15773 15774 15777 15778 (9 flits)
Class 0:
Remaining flits: 15648 15735 15752 15765 15770 15773 15774 15777 15778 (9 flits)
Measured flits: 15648 15735 15752 15765 15770 15773 15774 15777 15778 (9 flits)
Class 0:
Remaining flits: 15648 15735 15752 15765 15770 15773 15774 15777 15778 (9 flits)
Measured flits: 15648 15735 15752 15765 15770 15773 15774 15777 15778 (9 flits)
Class 0:
Remaining flits: 15648 15735 15752 15765 15770 15773 15774 15777 15778 (9 flits)
Measured flits: 15648 15735 15752 15765 15770 15773 15774 15777 15778 (9 flits)
Class 0:
Remaining flits: 15648 15735 15752 15765 15770 15773 15774 15777 15778 (9 flits)
Measured flits: 15648 15735 15752 15765 15770 15773 15774 15777 15778 (9 flits)
Class 0:
Remaining flits: 15648 15735 15752 15765 15770 15773 15774 15777 15778 (9 flits)
Measured flits: 15648 15735 15752 15765 15770 15773 15774 15777 15778 (9 flits)
Class 0:
Remaining flits: 15648 15735 15752 15765 15770 15773 15774 15777 15778 (9 flits)
Measured flits: 15648 15735 15752 15765 15770 15773 15774 15777 15778 (9 flits)
Class 0:
Remaining flits: 15648 15735 15752 15765 15770 15773 15774 15777 15778 (9 flits)
Measured flits: 15648 15735 15752 15765 15770 15773 15774 15777 15778 (9 flits)
Class 0:
Remaining flits: 15648 15735 15752 15765 15770 15773 15774 15777 15778 (9 flits)
Measured flits: 15648 15735 15752 15765 15770 15773 15774 15777 15778 (9 flits)
Class 0:
Remaining flits: 15648 15735 15752 15765 15770 15773 15774 15777 15778 (9 flits)
Measured flits: 15648 15735 15752 15765 15770 15773 15774 15777 15778 (9 flits)
Class 0:
Remaining flits: 15648 15735 15752 15765 15770 15773 15774 15777 15778 (9 flits)
Measured flits: 15648 15735 15752 15765 15770 15773 15774 15777 15778 (9 flits)
Class 0:
Remaining flits: 15648 15735 15752 15765 15770 15773 15774 15777 15778 (9 flits)
Measured flits: 15648 15735 15752 15765 15770 15773 15774 15777 15778 (9 flits)
Class 0:
Remaining flits: 15648 15735 15752 15765 15770 15773 15774 15777 15778 (9 flits)
Measured flits: 15648 15735 15752 15765 15770 15773 15774 15777 15778 (9 flits)
Class 0:
Remaining flits: 15648 15735 15752 15765 15770 15773 15774 15777 15778 (9 flits)
Measured flits: 15648 15735 15752 15765 15770 15773 15774 15777 15778 (9 flits)
Class 0:
Remaining flits: 15648 15735 15752 15765 15770 15773 15774 15777 15778 (9 flits)
Measured flits: 15648 15735 15752 15765 15770 15773 15774 15777 15778 (9 flits)
Class 0:
Remaining flits: 15648 15735 15752 15765 15770 15773 15774 15777 15778 (9 flits)
Measured flits: 15648 15735 15752 15765 15770 15773 15774 15777 15778 (9 flits)
Class 0:
Remaining flits: 15648 15735 15752 15765 15770 15773 15774 15777 15778 (9 flits)
Measured flits: 15648 15735 15752 15765 15770 15773 15774 15777 15778 (9 flits)
Class 0:
Remaining flits: 15648 15735 15752 15765 15770 15773 15774 15777 15778 (9 flits)
Measured flits: 15648 15735 15752 15765 15770 15773 15774 15777 15778 (9 flits)
Class 0:
Remaining flits: 15648 15735 15752 15765 15770 15773 15774 15777 15778 (9 flits)
Measured flits: 15648 15735 15752 15765 15770 15773 15774 15777 15778 (9 flits)
Class 0:
Remaining flits: 15648 15735 15752 15765 15770 15773 15774 15777 15778 (9 flits)
Measured flits: 15648 15735 15752 15765 15770 15773 15774 15777 15778 (9 flits)
Class 0:
Remaining flits: 15648 15735 15752 15765 15770 15773 15774 15777 15778 (9 flits)
Measured flits: 15648 15735 15752 15765 15770 15773 15774 15777 15778 (9 flits)
Class 0:
Remaining flits: 15648 15735 15752 15765 15770 15773 15774 15777 15778 (9 flits)
Measured flits: 15648 15735 15752 15765 15770 15773 15774 15777 15778 (9 flits)
Class 0:
Remaining flits: 15648 15735 15752 15765 15770 15773 15774 15777 15778 (9 flits)
Measured flits: 15648 15735 15752 15765 15770 15773 15774 15777 15778 (9 flits)
Class 0:
Remaining flits: 15648 15735 15752 15765 15770 15773 15774 15777 15778 (9 flits)
Measured flits: 15648 15735 15752 15765 15770 15773 15774 15777 15778 (9 flits)
Class 0:
Remaining flits: 15648 15735 15752 15765 15770 15773 15774 15777 15778 (9 flits)
Measured flits: 15648 15735 15752 15765 15770 15773 15774 15777 15778 (9 flits)
Class 0:
Remaining flits: 15648 15735 15752 15765 15770 15773 15774 15777 15778 (9 flits)
Measured flits: 15648 15735 15752 15765 15770 15773 15774 15777 15778 (9 flits)
Class 0:
Remaining flits: 15648 15735 15752 15765 15770 15773 15774 15777 15778 (9 flits)
Measured flits: 15648 15735 15752 15765 15770 15773 15774 15777 15778 (9 flits)
Class 0:
Remaining flits: 15648 15735 15752 15765 15770 15773 15774 15777 15778 (9 flits)
Measured flits: 15648 15735 15752 15765 15770 15773 15774 15777 15778 (9 flits)
Class 0:
Remaining flits: 15648 15735 15752 15765 15770 15773 15774 15777 15778 (9 flits)
Measured flits: 15648 15735 15752 15765 15770 15773 15774 15777 15778 (9 flits)
Class 0:
Remaining flits: 15648 15735 15752 15765 15770 15773 15774 15777 15778 (9 flits)
Measured flits: 15648 15735 15752 15765 15770 15773 15774 15777 15778 (9 flits)
Class 0:
Remaining flits: 15648 15735 15752 15765 15770 15773 15774 15777 15778 (9 flits)
Measured flits: 15648 15735 15752 15765 15770 15773 15774 15777 15778 (9 flits)
Class 0:
Remaining flits: 15648 15735 15752 15765 15770 15773 15774 15777 15778 (9 flits)
Measured flits: 15648 15735 15752 15765 15770 15773 15774 15777 15778 (9 flits)
Class 0:
Remaining flits: 15648 15735 15752 15765 15770 15773 15774 15777 15778 (9 flits)
Measured flits: 15648 15735 15752 15765 15770 15773 15774 15777 15778 (9 flits)
Class 0:
Remaining flits: 15648 15735 15752 15765 15770 15773 15774 15777 15778 (9 flits)
Measured flits: 15648 15735 15752 15765 15770 15773 15774 15777 15778 (9 flits)
Class 0:
Remaining flits: 15648 15735 15752 15765 15770 15773 15774 15777 15778 (9 flits)
Measured flits: 15648 15735 15752 15765 15770 15773 15774 15777 15778 (9 flits)
Class 0:
Remaining flits: 15648 15735 15752 15765 15770 15773 15774 15777 15778 (9 flits)
Measured flits: 15648 15735 15752 15765 15770 15773 15774 15777 15778 (9 flits)
Class 0:
Remaining flits: 15648 15735 15752 15765 15770 15773 15774 15777 15778 (9 flits)
Measured flits: 15648 15735 15752 15765 15770 15773 15774 15777 15778 (9 flits)
Class 0:
Remaining flits: 15648 15735 15752 15765 15770 15773 15774 15777 15778 (9 flits)
Measured flits: 15648 15735 15752 15765 15770 15773 15774 15777 15778 (9 flits)
Class 0:
Remaining flits: 15648 15735 15752 15765 15770 15773 15774 15777 15778 (9 flits)
Measured flits: 15648 15735 15752 15765 15770 15773 15774 15777 15778 (9 flits)
Class 0:
Remaining flits: 15648 15735 15752 15765 15770 15773 15774 15777 15778 (9 flits)
Measured flits: 15648 15735 15752 15765 15770 15773 15774 15777 15778 (9 flits)
Class 0:
Remaining flits: 15648 15735 15752 15765 15770 15773 15774 15777 15778 (9 flits)
Measured flits: 15648 15735 15752 15765 15770 15773 15774 15777 15778 (9 flits)
Class 0:
Remaining flits: 15648 15735 15752 15765 15770 15773 15774 15777 15778 (9 flits)
Measured flits: 15648 15735 15752 15765 15770 15773 15774 15777 15778 (9 flits)
Class 0:
Remaining flits: 15648 15735 15752 15765 15770 15773 15774 15777 15778 (9 flits)
Measured flits: 15648 15735 15752 15765 15770 15773 15774 15777 15778 (9 flits)
Class 0:
Remaining flits: 15648 15735 15752 15765 15770 15773 15774 15777 15778 (9 flits)
Measured flits: 15648 15735 15752 15765 15770 15773 15774 15777 15778 (9 flits)
Class 0:
Remaining flits: 15648 15735 15752 15765 15770 15773 15774 15777 15778 (9 flits)
Measured flits: 15648 15735 15752 15765 15770 15773 15774 15777 15778 (9 flits)
Time taken is 7000 cycles
====== Traffic class 0 ======

Total number of flits generated = 15779, changed lanes = 15639
Overall minimum packet latency = 1686 (1 samples)
Overall average packet latency = 2760.99 (1 samples)
Overall maximum packet latency = 3860 (1 samples)
Overall minimum network latency = 92 (1 samples)
Overall average network latency = 182.765 (1 samples)
Overall maximum network latency = 514 (1 samples)
Overall minimum flit latency = 92 (1 samples)
Overall average flit latency = 183.73 (1 samples)
Overall maximum flit latency = 514 (1 samples)
Overall minimum fragmentation = 0 (1 samples)
Overall average fragmentation = 0 (1 samples)
Overall maximum fragmentation = 0 (1 samples)
Overall minimum injected packet rate = 0.153667 (1 samples)
Overall average injected packet rate = 0.160583 (1 samples)
Overall maximum injected packet rate = 0.166333 (1 samples)
Overall minimum accepted packet rate = 0.141 (1 samples)
Overall average accepted packet rate = 0.15975 (1 samples)
Overall maximum accepted packet rate = 0.174667 (1 samples)
Overall minimum injected flit rate = 0.153667 (1 samples)
Overall average injected flit rate = 0.160583 (1 samples)
Overall maximum injected flit rate = 0.166333 (1 samples)
Overall minimum accepted flit rate = 0.141 (1 samples)
Overall average accepted flit rate = 0.15975 (1 samples)
Overall maximum accepted flit rate = 0.174667 (1 samples)
Overall average injected packet size = 1 (1 samples)
Overall average accepted packet size = 1 (1 samples)
Overall average hops = 3.49974 (1 samples)
Overall throughput of the network (flits/cycle) = 5.25667
Overall throughput of the network (packets/cycle) = 5.25667
Total run time 7215.65
