make: Nothing to be done for 'all'.
Master: Running timer....
Master: Running SRC....
BEGIN Configuration File: ./examples/bitrev
// Topology

topology = mesh;
k = 4;
n = 2;

// Routing
routing_function = dor;

// Flow control
num_vcs     = 4;
vc_buf_size = 4;
wait_for_tail_credit = 0;

// Router architecture
vc_allocator = islip;
sw_allocator = islip;
alloc_iters  = 1;

credit_delay   = 1;
routing_delay  = 1;
vc_alloc_delay = 1;
sw_alloc_delay = 1;

input_speedup     = 1;
output_speedup    = 1;
internal_speedup  = 1.0;

vc_busy_when_full = 0;

// Traffic
traffic = uniform;
packet_size = 1;

// Simulation
sim_type = throughput;

injection_rate = 0.21;

END Configuration File: ./examples/bitrev
===== Time: 1000 =====
Class 0:
Minimum packet latency = 8
Average packet latency = 148.515
Maximum packet latency = 476
Minimum network latency = 9
Average network latency = 125.89
Maximum network latency = 440
Slowest packet = 1125
Minimum flit latency = 9
Average flit latency = 125.89
Maximum flit latency = 440
Slowest flit = 1125
Minimum fragmentation = 0
Average fragmentation = 0
Maximum fragmentation = 0
Minimum injected packet rate = 0.172 (at node 6)
Average injected packet rate = 0.177563
Maximum injected packet rate = 0.182 (at node 8)
Minimum accepted packet rate = 0.131 (at node 14)
Average accepted packet rate = 0.149312
Maximum accepted packet rate = 0.164 (at node 15)
Minimum injected flit rate = 0.172 (at node 6)
Average injected flit rate = 0.177563
Maximum injected flit rate = 0.182 (at node 8)
Minimum accepted flit rate = 0.131 (at node 14)
Average accepted flit rate = 0.149312
Maximum accepted flit rate = 0.164 (at node 15)
Total number of injected packets = 2841
Total number of injected flits = 2841
Average injected packet length = 1
Total number of accepted packets = 2389
Total number of accepted flits = 2389
Average accepted packet length = 1
Total in-flight flits = 466 (0 measured)
===== Time: 2000 =====
Class 0:
Minimum packet latency = 8
Average packet latency = 260.541
Maximum packet latency = 690
Minimum network latency = 9
Average network latency = 151.859
Maximum network latency = 440
Slowest packet = 1125
Minimum flit latency = 9
Average flit latency = 151.859
Maximum flit latency = 440
Slowest flit = 1125
Minimum fragmentation = 0
Average fragmentation = 0
Maximum fragmentation = 0
Minimum injected packet rate = 0.1595 (at node 6)
Average injected packet rate = 0.170187
Maximum injected packet rate = 0.174 (at node 8)
Minimum accepted packet rate = 0.143 (at node 14)
Average accepted packet rate = 0.155719
Maximum accepted packet rate = 0.168 (at node 15)
Minimum injected flit rate = 0.1595 (at node 6)
Average injected flit rate = 0.170187
Maximum injected flit rate = 0.174 (at node 8)
Minimum accepted flit rate = 0.143 (at node 14)
Average accepted flit rate = 0.155719
Maximum accepted flit rate = 0.168 (at node 15)
Total number of injected packets = 5446
Total number of injected flits = 5446
Average injected packet length = 1
Total number of accepted packets = 4983
Total number of accepted flits = 4983
Average accepted packet length = 1
Total in-flight flits = 479 (0 measured)
===== Time: 3000 =====
Class 0:
Minimum packet latency = 316
Average packet latency = 589.42
Maximum packet latency = 891
Minimum network latency = 97
Average network latency = 185.192
Maximum network latency = 414
Slowest packet = 5034
Minimum flit latency = 97
Average flit latency = 185.192
Maximum flit latency = 414
Slowest flit = 5253
Minimum fragmentation = 0
Average fragmentation = 0
Maximum fragmentation = 0
Minimum injected packet rate = 0.148 (at node 9)
Average injected packet rate = 0.160375
Maximum injected packet rate = 0.167 (at node 7)
Minimum accepted packet rate = 0.144 (at node 4)
Average accepted packet rate = 0.160062
Maximum accepted packet rate = 0.178 (at node 0)
Minimum injected flit rate = 0.148 (at node 9)
Average injected flit rate = 0.160375
Maximum injected flit rate = 0.167 (at node 7)
Minimum accepted flit rate = 0.144 (at node 4)
Average accepted flit rate = 0.160062
Maximum accepted flit rate = 0.178 (at node 0)
Total number of injected packets = 2566
Total number of injected flits = 2566
Average injected packet length = 1
Total number of accepted packets = 2561
Total number of accepted flits = 2561
Average accepted packet length = 1
Total in-flight flits = 480 (0 measured)
===== Time: 4000 =====
Class 0:
Minimum packet latency = 514
Average packet latency = 832.761
Maximum packet latency = 1311
Minimum network latency = 92
Average network latency = 177.015
Maximum network latency = 558
Slowest packet = 8037
Minimum flit latency = 92
Average flit latency = 181.019
Maximum flit latency = 558
Slowest flit = 8674
Minimum fragmentation = 0
Average fragmentation = 0
Maximum fragmentation = 0
Minimum injected packet rate = 0.147 (at node 9)
Average injected packet rate = 0.159562
Maximum injected packet rate = 0.167 (at node 0)
Minimum accepted packet rate = 0.136 (at node 4)
Average accepted packet rate = 0.159188
Maximum accepted packet rate = 0.184 (at node 7)
Minimum injected flit rate = 0.147 (at node 9)
Average injected flit rate = 0.159562
Maximum injected flit rate = 0.167 (at node 0)
Minimum accepted flit rate = 0.136 (at node 4)
Average accepted flit rate = 0.159188
Maximum accepted flit rate = 0.184 (at node 7)
Total number of injected packets = 2553
Total number of injected flits = 2553
Average injected packet length = 1
Total number of accepted packets = 2547
Total number of accepted flits = 2547
Average accepted packet length = 1
Total in-flight flits = 488 (488 measured)
===== Time: 5000 =====
Class 0:
Minimum packet latency = 514
Average packet latency = 960.796
Maximum packet latency = 1481
Minimum network latency = 92
Average network latency = 182.577
Maximum network latency = 558
Slowest packet = 8037
Minimum flit latency = 92
Average flit latency = 184.047
Maximum flit latency = 558
Slowest flit = 8674
Minimum fragmentation = 0
Average fragmentation = 0
Maximum fragmentation = 0
Minimum injected packet rate = 0.1525 (at node 9)
Average injected packet rate = 0.159969
Maximum injected packet rate = 0.1665 (at node 0)
Minimum accepted packet rate = 0.138 (at node 4)
Average accepted packet rate = 0.160031
Maximum accepted packet rate = 0.18 (at node 7)
Minimum injected flit rate = 0.1525 (at node 9)
Average injected flit rate = 0.159969
Maximum injected flit rate = 0.1665 (at node 0)
Minimum accepted flit rate = 0.138 (at node 4)
Average accepted flit rate = 0.160031
Maximum accepted flit rate = 0.18 (at node 7)
Total number of injected packets = 5119
Total number of injected flits = 5119
Average injected packet length = 1
Total number of accepted packets = 5121
Total number of accepted flits = 5121
Average accepted packet length = 1
Total in-flight flits = 477 (477 measured)
===== Time: 6000 =====
Class 0:
Minimum packet latency = 514
Average packet latency = 1075.13
Maximum packet latency = 1810
Minimum network latency = 92
Average network latency = 182.76
Maximum network latency = 558
Slowest packet = 8037
Minimum flit latency = 92
Average flit latency = 183.728
Maximum flit latency = 558
Slowest flit = 8674
Minimum fragmentation = 0
Average fragmentation = 0
Maximum fragmentation = 0
Minimum injected packet rate = 0.151 (at node 6)
Average injected packet rate = 0.160167
Maximum injected packet rate = 0.166 (at node 3)
Minimum accepted packet rate = 0.142667 (at node 4)
Average accepted packet rate = 0.160125
Maximum accepted packet rate = 0.176667 (at node 7)
Minimum injected flit rate = 0.151 (at node 6)
Average injected flit rate = 0.160167
Maximum injected flit rate = 0.166 (at node 3)
Minimum accepted flit rate = 0.142667 (at node 4)
Average accepted flit rate = 0.160125
Maximum accepted flit rate = 0.176667 (at node 7)
Total number of injected packets = 7688
Total number of injected flits = 7688
Average injected packet length = 1
Total number of accepted packets = 7686
Total number of accepted flits = 7686
Average accepted packet length = 1
Total in-flight flits = 484 (484 measured)
Draining remaining packets ...
Class 0:
Remaining flits: 14576 14609 14626 14725 14790 14834 14844 14848 14862 14905 [...] (460 flits)
Measured flits: 14576 14609 14626 14725 14790 14834 14844 14848 14862 14905 [...] (460 flits)
Class 0:
Remaining flits: 14576 14609 14626 14790 14834 14844 14848 14862 14905 14914 [...] (442 flits)
Measured flits: 14576 14609 14626 14790 14834 14844 14848 14862 14905 14914 [...] (442 flits)
Class 0:
Remaining flits: 14609 14626 14790 14834 14844 14848 14905 14938 14955 14982 [...] (415 flits)
Measured flits: 14609 14626 14790 14834 14844 14848 14905 14938 14955 14982 [...] (415 flits)
Class 0:
Remaining flits: 14609 14790 14834 14844 14848 14905 14955 14982 14998 15014 [...] (392 flits)
Measured flits: 14609 14790 14834 14844 14848 14905 14955 14982 14998 15014 [...] (392 flits)
Class 0:
Remaining flits: 14609 14790 14834 14844 14848 14955 14982 14998 15014 15027 [...] (361 flits)
Measured flits: 14609 14790 14834 14844 14848 14955 14982 14998 15014 15027 [...] (361 flits)
Class 0:
Remaining flits: 14609 14790 14834 14844 14848 14955 14982 14998 15027 15028 [...] (334 flits)
Measured flits: 14609 14790 14834 14844 14848 14955 14982 14998 15027 15028 [...] (334 flits)
Class 0:
Remaining flits: 14790 14848 14982 14998 15027 15028 15054 15060 15073 15075 [...] (306 flits)
Measured flits: 14790 14848 14982 14998 15027 15028 15054 15060 15073 15075 [...] (306 flits)
Class 0:
Remaining flits: 14790 14848 14982 14998 15027 15028 15054 15060 15073 15075 [...] (289 flits)
Measured flits: 14790 14848 14982 14998 15027 15028 15054 15060 15073 15075 [...] (289 flits)
Class 0:
Remaining flits: 14790 14848 14982 15027 15028 15054 15060 15075 15115 15128 [...] (268 flits)
Measured flits: 14790 14848 14982 15027 15028 15054 15060 15075 15115 15128 [...] (268 flits)
Class 0:
Remaining flits: 14982 15027 15028 15054 15060 15075 15115 15128 15135 15166 [...] (248 flits)
Measured flits: 14982 15027 15028 15054 15060 15075 15115 15128 15135 15166 [...] (248 flits)
Class 0:
Remaining flits: 15027 15028 15054 15060 15135 15166 15167 15179 15212 15213 [...] (222 flits)
Measured flits: 15027 15028 15054 15060 15135 15166 15167 15179 15212 15213 [...] (222 flits)
Class 0:
Remaining flits: 15027 15028 15054 15060 15135 15166 15167 15179 15212 15213 [...] (202 flits)
Measured flits: 15027 15028 15054 15060 15135 15166 15167 15179 15212 15213 [...] (202 flits)
Class 0:
Remaining flits: 15027 15028 15054 15060 15135 15166 15179 15213 15241 15245 [...] (180 flits)
Measured flits: 15027 15028 15054 15060 15135 15166 15179 15213 15241 15245 [...] (180 flits)
Class 0:
Remaining flits: 15027 15028 15054 15060 15135 15166 15179 15213 15241 15245 [...] (164 flits)
Measured flits: 15027 15028 15054 15060 15135 15166 15179 15213 15241 15245 [...] (164 flits)
Class 0:
Remaining flits: 15027 15028 15054 15135 15166 15179 15213 15241 15245 15274 [...] (142 flits)
Measured flits: 15027 15028 15054 15135 15166 15179 15213 15241 15245 15274 [...] (142 flits)
Class 0:
Remaining flits: 15027 15054 15135 15166 15179 15213 15241 15245 15274 15286 [...] (126 flits)
Measured flits: 15027 15054 15135 15166 15179 15213 15241 15245 15274 15286 [...] (126 flits)
Class 0:
Remaining flits: 15054 15135 15166 15179 15213 15241 15245 15274 15286 15291 [...] (108 flits)
Measured flits: 15054 15135 15166 15179 15213 15241 15245 15274 15286 15291 [...] (108 flits)
Class 0:
Remaining flits: 15135 15166 15179 15241 15274 15286 15291 15304 15332 15351 [...] (88 flits)
Measured flits: 15135 15166 15179 15241 15274 15286 15291 15304 15332 15351 [...] (88 flits)
Class 0:
Remaining flits: 15166 15241 15274 15286 15291 15304 15351 15384 15408 15444 [...] (75 flits)
Measured flits: 15166 15241 15274 15286 15291 15304 15351 15384 15408 15444 [...] (75 flits)
Class 0:
Remaining flits: 15166 15241 15274 15291 15304 15351 15384 15408 15444 15452 [...] (60 flits)
Measured flits: 15166 15241 15274 15291 15304 15351 15384 15408 15444 15452 [...] (60 flits)
Class 0:
Remaining flits: 15166 15241 15274 15291 15304 15351 15384 15484 15487 15495 [...] (49 flits)
Measured flits: 15166 15241 15274 15291 15304 15351 15384 15484 15487 15495 [...] (49 flits)
Class 0:
Remaining flits: 15241 15274 15291 15304 15351 15384 15484 15487 15503 15526 [...] (42 flits)
Measured flits: 15241 15274 15291 15304 15351 15384 15484 15487 15503 15526 [...] (42 flits)
Class 0:
Remaining flits: 15274 15304 15384 15487 15503 15534 15553 15563 15565 15593 [...] (34 flits)
Measured flits: 15274 15304 15384 15487 15503 15534 15553 15563 15565 15593 [...] (34 flits)
Class 0:
Remaining flits: 15304 15384 15487 15503 15534 15563 15565 15593 15594 15595 [...] (29 flits)
Measured flits: 15304 15384 15487 15503 15534 15563 15565 15593 15594 15595 [...] (29 flits)
Class 0:
Remaining flits: 15304 15384 15487 15503 15534 15563 15565 15593 15595 15596 [...] (27 flits)
Measured flits: 15304 15384 15487 15503 15534 15563 15565 15593 15595 15596 [...] (27 flits)
Class 0:
Remaining flits: 15304 15384 15503 15534 15563 15565 15593 15595 15596 15608 [...] (26 flits)
Measured flits: 15304 15384 15503 15534 15563 15565 15593 15595 15596 15608 [...] (26 flits)
Class 0:
Remaining flits: 15304 15384 15534 15565 15593 15595 15596 15608 15609 15610 [...] (24 flits)
Measured flits: 15304 15384 15534 15565 15593 15595 15596 15608 15609 15610 [...] (24 flits)
Class 0:
Remaining flits: 15304 15534 15565 15593 15596 15608 15609 15610 15630 15643 [...] (21 flits)
Measured flits: 15304 15534 15565 15593 15596 15608 15609 15610 15630 15643 [...] (21 flits)
Class 0:
Remaining flits: 15304 15565 15593 15596 15609 15610 15646 15668 15679 15687 [...] (17 flits)
Measured flits: 15304 15565 15593 15596 15609 15610 15646 15668 15679 15687 [...] (17 flits)
Class 0:
Remaining flits: 15565 15596 15609 15610 15646 15668 15679 15687 15698 15702 [...] (14 flits)
Measured flits: 15565 15596 15609 15610 15646 15668 15679 15687 15698 15702 [...] (14 flits)
Class 0:
Remaining flits: 15565 15596 15609 15610 15646 15668 15687 15698 15702 15705 [...] (13 flits)
Measured flits: 15565 15596 15609 15610 15646 15668 15687 15698 15702 15705 [...] (13 flits)
Class 0:
Remaining flits: 15596 15610 15646 15668 15687 15698 15702 15705 15708 15709 [...] (11 flits)
Measured flits: 15596 15610 15646 15668 15687 15698 15702 15705 15708 15709 [...] (11 flits)
Class 0:
Remaining flits: 15596 15610 15668 15687 15698 15702 15705 15708 15709 15710 (10 flits)
Measured flits: 15596 15610 15668 15687 15698 15702 15705 15708 15709 15710 (10 flits)
Class 0:
Remaining flits: 15596 15668 15687 15698 15702 15708 15709 15710 (8 flits)
Measured flits: 15596 15668 15687 15698 15702 15708 15709 15710 (8 flits)
Class 0:
Remaining flits: 15596 15668 15698 15702 15708 15709 15710 (7 flits)
Measured flits: 15596 15668 15698 15702 15708 15709 15710 (7 flits)
Class 0:
Remaining flits: 15668 15698 15702 15708 15709 15710 (6 flits)
Measured flits: 15668 15698 15702 15708 15709 15710 (6 flits)
Class 0:
Remaining flits: 15668 15698 15702 15708 15709 15710 (6 flits)
Measured flits: 15668 15698 15702 15708 15709 15710 (6 flits)
Class 0:
Remaining flits: 15668 15698 15702 15708 15709 15710 (6 flits)
Measured flits: 15668 15698 15702 15708 15709 15710 (6 flits)
Class 0:
Remaining flits: 15668 15698 15702 15708 15709 15710 (6 flits)
Measured flits: 15668 15698 15702 15708 15709 15710 (6 flits)
Class 0:
Remaining flits: 15668 15698 15702 15708 15709 15710 (6 flits)
Measured flits: 15668 15698 15702 15708 15709 15710 (6 flits)
Class 0:
Remaining flits: 15668 15698 15702 15708 15709 15710 (6 flits)
Measured flits: 15668 15698 15702 15708 15709 15710 (6 flits)
Class 0:
Remaining flits: 15668 15698 15702 15708 15709 15710 (6 flits)
Measured flits: 15668 15698 15702 15708 15709 15710 (6 flits)
Class 0:
Remaining flits: 15668 15698 15702 15708 15709 15710 (6 flits)
Measured flits: 15668 15698 15702 15708 15709 15710 (6 flits)
Class 0:
Remaining flits: 15668 15698 15702 15708 15709 15710 (6 flits)
Measured flits: 15668 15698 15702 15708 15709 15710 (6 flits)
Class 0:
Remaining flits: 15668 15698 15702 15708 15709 15710 (6 flits)
Measured flits: 15668 15698 15702 15708 15709 15710 (6 flits)
Class 0:
Remaining flits: 15668 15698 15702 15708 15709 15710 (6 flits)
Measured flits: 15668 15698 15702 15708 15709 15710 (6 flits)
Class 0:
Remaining flits: 15668 15698 15702 15708 15709 15710 (6 flits)
Measured flits: 15668 15698 15702 15708 15709 15710 (6 flits)
Class 0:
Remaining flits: 15668 15698 15702 15708 15709 15710 (6 flits)
Measured flits: 15668 15698 15702 15708 15709 15710 (6 flits)
Class 0:
Remaining flits: 15668 15698 15702 15708 15709 15710 (6 flits)
Measured flits: 15668 15698 15702 15708 15709 15710 (6 flits)
Class 0:
Remaining flits: 15668 15698 15702 15708 15709 15710 (6 flits)
Measured flits: 15668 15698 15702 15708 15709 15710 (6 flits)
Class 0:
Remaining flits: 15668 15698 15702 15708 15709 15710 (6 flits)
Measured flits: 15668 15698 15702 15708 15709 15710 (6 flits)
Class 0:
Remaining flits: 15668 15698 15702 15708 15709 15710 (6 flits)
Measured flits: 15668 15698 15702 15708 15709 15710 (6 flits)
Class 0:
Remaining flits: 15668 15698 15702 15708 15709 15710 (6 flits)
Measured flits: 15668 15698 15702 15708 15709 15710 (6 flits)
Class 0:
Remaining flits: 15668 15698 15702 15708 15709 15710 (6 flits)
Measured flits: 15668 15698 15702 15708 15709 15710 (6 flits)
Class 0:
Remaining flits: 15668 15698 15702 15708 15709 15710 (6 flits)
Measured flits: 15668 15698 15702 15708 15709 15710 (6 flits)
Class 0:
Remaining flits: 15668 15698 15702 15708 15709 15710 (6 flits)
Measured flits: 15668 15698 15702 15708 15709 15710 (6 flits)
Class 0:
Remaining flits: 15668 15698 15702 15708 15709 15710 (6 flits)
Measured flits: 15668 15698 15702 15708 15709 15710 (6 flits)
Class 0:
Remaining flits: 15668 15698 15702 15708 15709 15710 (6 flits)
Measured flits: 15668 15698 15702 15708 15709 15710 (6 flits)
Class 0:
Remaining flits: 15668 15698 15702 15708 15709 15710 (6 flits)
Measured flits: 15668 15698 15702 15708 15709 15710 (6 flits)
Class 0:
Remaining flits: 15668 15698 15702 15708 15709 15710 (6 flits)
Measured flits: 15668 15698 15702 15708 15709 15710 (6 flits)
Class 0:
Remaining flits: 15668 15698 15702 15708 15709 15710 (6 flits)
Measured flits: 15668 15698 15702 15708 15709 15710 (6 flits)
Class 0:
Remaining flits: 15668 15698 15702 15708 15709 15710 (6 flits)
Measured flits: 15668 15698 15702 15708 15709 15710 (6 flits)
Class 0:
Remaining flits: 15668 15698 15702 15708 15709 15710 (6 flits)
Measured flits: 15668 15698 15702 15708 15709 15710 (6 flits)
Class 0:
Remaining flits: 15668 15698 15702 15708 15709 15710 (6 flits)
Measured flits: 15668 15698 15702 15708 15709 15710 (6 flits)
Class 0:
Remaining flits: 15668 15698 15702 15708 15709 15710 (6 flits)
Measured flits: 15668 15698 15702 15708 15709 15710 (6 flits)
Class 0:
Remaining flits: 15668 15698 15702 15708 15709 15710 (6 flits)
Measured flits: 15668 15698 15702 15708 15709 15710 (6 flits)
Class 0:
Remaining flits: 15668 15698 15702 15708 15709 15710 (6 flits)
Measured flits: 15668 15698 15702 15708 15709 15710 (6 flits)
Class 0:
Remaining flits: 15668 15698 15702 15708 15709 15710 (6 flits)
Measured flits: 15668 15698 15702 15708 15709 15710 (6 flits)
Class 0:
Remaining flits: 15668 15698 15702 15708 15709 15710 (6 flits)
Measured flits: 15668 15698 15702 15708 15709 15710 (6 flits)
Class 0:
Remaining flits: 15668 15698 15702 15708 15709 15710 (6 flits)
Measured flits: 15668 15698 15702 15708 15709 15710 (6 flits)
Class 0:
Remaining flits: 15668 15698 15702 15708 15709 15710 (6 flits)
Measured flits: 15668 15698 15702 15708 15709 15710 (6 flits)
Class 0:
Remaining flits: 15668 15698 15702 15708 15709 15710 (6 flits)
Measured flits: 15668 15698 15702 15708 15709 15710 (6 flits)
Class 0:
Remaining flits: 15668 15698 15702 15708 15709 15710 (6 flits)
Measured flits: 15668 15698 15702 15708 15709 15710 (6 flits)
Class 0:
Remaining flits: 15668 15698 15702 15708 15709 15710 (6 flits)
Measured flits: 15668 15698 15702 15708 15709 15710 (6 flits)
Class 0:
Remaining flits: 15668 15698 15702 15708 15709 15710 (6 flits)
Measured flits: 15668 15698 15702 15708 15709 15710 (6 flits)
Class 0:
Remaining flits: 15668 15698 15702 15708 15709 15710 (6 flits)
Measured flits: 15668 15698 15702 15708 15709 15710 (6 flits)
Class 0:
Remaining flits: 15668 15698 15702 15708 15709 15710 (6 flits)
Measured flits: 15668 15698 15702 15708 15709 15710 (6 flits)
Class 0:
Remaining flits: 15668 15698 15702 15708 15709 15710 (6 flits)
Measured flits: 15668 15698 15702 15708 15709 15710 (6 flits)
Class 0:
Remaining flits: 15668 15698 15702 15708 15709 15710 (6 flits)
Measured flits: 15668 15698 15702 15708 15709 15710 (6 flits)
Class 0:
Remaining flits: 15668 15698 15702 15708 15709 15710 (6 flits)
Measured flits: 15668 15698 15702 15708 15709 15710 (6 flits)
Class 0:
Remaining flits: 15668 15698 15702 15708 15709 15710 (6 flits)
Measured flits: 15668 15698 15702 15708 15709 15710 (6 flits)
Class 0:
Remaining flits: 15668 15698 15702 15708 15709 15710 (6 flits)
Measured flits: 15668 15698 15702 15708 15709 15710 (6 flits)
Class 0:
Remaining flits: 15668 15698 15702 15708 15709 15710 (6 flits)
Measured flits: 15668 15698 15702 15708 15709 15710 (6 flits)
Class 0:
Remaining flits: 15668 15698 15702 15708 15709 15710 (6 flits)
Measured flits: 15668 15698 15702 15708 15709 15710 (6 flits)
Class 0:
Remaining flits: 15668 15698 15702 15708 15709 15710 (6 flits)
Measured flits: 15668 15698 15702 15708 15709 15710 (6 flits)
Class 0:
Remaining flits: 15668 15698 15702 15708 15709 15710 (6 flits)
Measured flits: 15668 15698 15702 15708 15709 15710 (6 flits)
Class 0:
Remaining flits: 15668 15698 15702 15708 15709 15710 (6 flits)
Measured flits: 15668 15698 15702 15708 15709 15710 (6 flits)
Class 0:
Remaining flits: 15668 15698 15702 15708 15709 15710 (6 flits)
Measured flits: 15668 15698 15702 15708 15709 15710 (6 flits)
Class 0:
Remaining flits: 15668 15698 15702 15708 15709 15710 (6 flits)
Measured flits: 15668 15698 15702 15708 15709 15710 (6 flits)
Class 0:
Remaining flits: 15668 15698 15702 15708 15709 15710 (6 flits)
Measured flits: 15668 15698 15702 15708 15709 15710 (6 flits)
Class 0:
Remaining flits: 15668 15698 15702 15708 15709 15710 (6 flits)
Measured flits: 15668 15698 15702 15708 15709 15710 (6 flits)
Class 0:
Remaining flits: 15668 15698 15702 15708 15709 15710 (6 flits)
Measured flits: 15668 15698 15702 15708 15709 15710 (6 flits)
Class 0:
Remaining flits: 15668 15698 15702 15708 15709 15710 (6 flits)
Measured flits: 15668 15698 15702 15708 15709 15710 (6 flits)
Class 0:
Remaining flits: 15668 15698 15702 15708 15709 15710 (6 flits)
Measured flits: 15668 15698 15702 15708 15709 15710 (6 flits)
Class 0:
Remaining flits: 15668 15698 15702 15708 15709 15710 (6 flits)
Measured flits: 15668 15698 15702 15708 15709 15710 (6 flits)
Class 0:
Remaining flits: 15668 15698 15702 15708 15709 15710 (6 flits)
Measured flits: 15668 15698 15702 15708 15709 15710 (6 flits)
Class 0:
Remaining flits: 15668 15698 15702 15708 15709 15710 (6 flits)
Measured flits: 15668 15698 15702 15708 15709 15710 (6 flits)
Class 0:
Remaining flits: 15668 15698 15702 15708 15709 15710 (6 flits)
Measured flits: 15668 15698 15702 15708 15709 15710 (6 flits)
Class 0:
Remaining flits: 15668 15698 15702 15708 15709 15710 (6 flits)
Measured flits: 15668 15698 15702 15708 15709 15710 (6 flits)
Class 0:
Remaining flits: 15668 15698 15702 15708 15709 15710 (6 flits)
Measured flits: 15668 15698 15702 15708 15709 15710 (6 flits)
Class 0:
Remaining flits: 15668 15698 15702 15708 15709 15710 (6 flits)
Measured flits: 15668 15698 15702 15708 15709 15710 (6 flits)
Time taken is 7000 cycles
====== Traffic class 0 ======

Total number of flits generated = 15714, changed lanes = 15569
Overall minimum packet latency = 514 (1 samples)
Overall average packet latency = 1098.25 (1 samples)
Overall maximum packet latency = 1945 (1 samples)
Overall minimum network latency = 92 (1 samples)
Overall average network latency = 184.664 (1 samples)
Overall maximum network latency = 558 (1 samples)
Overall minimum flit latency = 92 (1 samples)
Overall average flit latency = 185.464 (1 samples)
Overall maximum flit latency = 558 (1 samples)
Overall minimum fragmentation = 0 (1 samples)
Overall average fragmentation = 0 (1 samples)
Overall maximum fragmentation = 0 (1 samples)
Overall minimum injected packet rate = 0.151 (1 samples)
Overall average injected packet rate = 0.160167 (1 samples)
Overall maximum injected packet rate = 0.166 (1 samples)
Overall minimum accepted packet rate = 0.142667 (1 samples)
Overall average accepted packet rate = 0.160125 (1 samples)
Overall maximum accepted packet rate = 0.176667 (1 samples)
Overall minimum injected flit rate = 0.151 (1 samples)
Overall average injected flit rate = 0.160167 (1 samples)
Overall maximum injected flit rate = 0.166 (1 samples)
Overall minimum accepted flit rate = 0.142667 (1 samples)
Overall average accepted flit rate = 0.160125 (1 samples)
Overall maximum accepted flit rate = 0.176667 (1 samples)
Overall average injected packet size = 1 (1 samples)
Overall average accepted packet size = 1 (1 samples)
Overall average hops = 3.48855 (1 samples)
Overall throughput of the network (flits/cycle) = 5.236
Overall throughput of the network (packets/cycle) = 5.236
Total run time 7210.62
