make: Nothing to be done for 'all'.
Master: Running timer....
Master: Running SRC....
BEGIN Configuration File: ./examples/bitrev
// Topology

topology = mesh;
k = 4;
n = 2;

// Routing
routing_function = dor;

// Flow control
num_vcs     = 4;
vc_buf_size = 4;
wait_for_tail_credit = 0;

// Router architecture
vc_allocator = islip;
sw_allocator = islip;
alloc_iters  = 1;

credit_delay   = 1;
routing_delay  = 1;
vc_alloc_delay = 1;
sw_alloc_delay = 1;

input_speedup     = 1;
output_speedup    = 1;
internal_speedup  = 1.0;

vc_busy_when_full = 0;

// Traffic
traffic = uniform;
packet_size = 1;

// Simulation
sim_type = throughput;

injection_rate = 0.19;

END Configuration File: ./examples/bitrev
===== Time: 1000 =====
Class 0:
Minimum packet latency = 8
Average packet latency = 120.4
Maximum packet latency = 445
Minimum network latency = 9
Average network latency = 113.418
Maximum network latency = 433
Slowest packet = 1351
Minimum flit latency = 9
Average flit latency = 113.418
Maximum flit latency = 433
Slowest flit = 1351
Minimum fragmentation = 0
Average fragmentation = 0
Maximum fragmentation = 0
Minimum injected packet rate = 0.163 (at node 2)
Average injected packet rate = 0.173625
Maximum injected packet rate = 0.181 (at node 13)
Minimum accepted packet rate = 0.13 (at node 14)
Average accepted packet rate = 0.146375
Maximum accepted packet rate = 0.16 (at node 15)
Minimum injected flit rate = 0.163 (at node 2)
Average injected flit rate = 0.173625
Maximum injected flit rate = 0.181 (at node 13)
Minimum accepted flit rate = 0.13 (at node 14)
Average accepted flit rate = 0.146375
Maximum accepted flit rate = 0.16 (at node 15)
Total number of injected packets = 2778
Total number of injected flits = 2778
Average injected packet length = 1
Total number of accepted packets = 2342
Total number of accepted flits = 2342
Average accepted packet length = 1
Total in-flight flits = 446 (0 measured)
===== Time: 2000 =====
Class 0:
Minimum packet latency = 8
Average packet latency = 203.176
Maximum packet latency = 779
Minimum network latency = 9
Average network latency = 149.778
Maximum network latency = 635
Slowest packet = 1351
Minimum flit latency = 9
Average flit latency = 149.778
Maximum flit latency = 635
Slowest flit = 2610
Minimum fragmentation = 0
Average fragmentation = 0
Maximum fragmentation = 0
Minimum injected packet rate = 0.145 (at node 2)
Average injected packet rate = 0.164437
Maximum injected packet rate = 0.1715 (at node 11)
Minimum accepted packet rate = 0.1335 (at node 4)
Average accepted packet rate = 0.149125
Maximum accepted packet rate = 0.163 (at node 15)
Minimum injected flit rate = 0.145 (at node 2)
Average injected flit rate = 0.164437
Maximum injected flit rate = 0.1715 (at node 11)
Minimum accepted flit rate = 0.1335 (at node 4)
Average accepted flit rate = 0.149125
Maximum accepted flit rate = 0.163 (at node 15)
Total number of injected packets = 5262
Total number of injected flits = 5262
Average injected packet length = 1
Total number of accepted packets = 4772
Total number of accepted flits = 4772
Average accepted packet length = 1
Total in-flight flits = 503 (0 measured)
===== Time: 3000 =====
Class 0:
Minimum packet latency = 171
Average packet latency = 462.452
Maximum packet latency = 955
Minimum network latency = 89
Average network latency = 195.063
Maximum network latency = 526
Slowest packet = 4577
Minimum flit latency = 89
Average flit latency = 195.063
Maximum flit latency = 526
Slowest flit = 4038
Minimum fragmentation = 0
Average fragmentation = 0
Maximum fragmentation = 0
Minimum injected packet rate = 0.134 (at node 10)
Average injected packet rate = 0.154312
Maximum injected packet rate = 0.167 (at node 3)
Minimum accepted packet rate = 0.139 (at node 10)
Average accepted packet rate = 0.155875
Maximum accepted packet rate = 0.174 (at node 0)
Minimum injected flit rate = 0.134 (at node 10)
Average injected flit rate = 0.154312
Maximum injected flit rate = 0.167 (at node 3)
Minimum accepted flit rate = 0.139 (at node 10)
Average accepted flit rate = 0.155875
Maximum accepted flit rate = 0.174 (at node 0)
Total number of injected packets = 2469
Total number of injected flits = 2469
Average injected packet length = 1
Total number of accepted packets = 2494
Total number of accepted flits = 2494
Average accepted packet length = 1
Total in-flight flits = 477 (0 measured)
===== Time: 4000 =====
Class 0:
Minimum packet latency = 275
Average packet latency = 640.611
Maximum packet latency = 1169
Minimum network latency = 94
Average network latency = 178.216
Maximum network latency = 480
Slowest packet = 7749
Minimum flit latency = 94
Average flit latency = 187.883
Maximum flit latency = 567
Slowest flit = 7662
Minimum fragmentation = 0
Average fragmentation = 0
Maximum fragmentation = 0
Minimum injected packet rate = 0.143 (at node 2)
Average injected packet rate = 0.15875
Maximum injected packet rate = 0.167 (at node 12)
Minimum accepted packet rate = 0.14 (at node 4)
Average accepted packet rate = 0.159438
Maximum accepted packet rate = 0.178 (at node 7)
Minimum injected flit rate = 0.143 (at node 2)
Average injected flit rate = 0.15875
Maximum injected flit rate = 0.167 (at node 12)
Minimum accepted flit rate = 0.14 (at node 4)
Average accepted flit rate = 0.159438
Maximum accepted flit rate = 0.178 (at node 7)
Total number of injected packets = 2540
Total number of injected flits = 2540
Average injected packet length = 1
Total number of accepted packets = 2551
Total number of accepted flits = 2551
Average accepted packet length = 1
Total in-flight flits = 467 (467 measured)
===== Time: 5000 =====
Class 0:
Minimum packet latency = 275
Average packet latency = 726.298
Maximum packet latency = 1404
Minimum network latency = 93
Average network latency = 182.559
Maximum network latency = 505
Slowest packet = 7749
Minimum flit latency = 93
Average flit latency = 186.993
Maximum flit latency = 567
Slowest flit = 7662
Minimum fragmentation = 0
Average fragmentation = 0
Maximum fragmentation = 0
Minimum injected packet rate = 0.148 (at node 5)
Average injected packet rate = 0.159375
Maximum injected packet rate = 0.1665 (at node 12)
Minimum accepted packet rate = 0.143 (at node 4)
Average accepted packet rate = 0.159219
Maximum accepted packet rate = 0.175 (at node 8)
Minimum injected flit rate = 0.148 (at node 5)
Average injected flit rate = 0.159375
Maximum injected flit rate = 0.1665 (at node 12)
Minimum accepted flit rate = 0.143 (at node 4)
Average accepted flit rate = 0.159219
Maximum accepted flit rate = 0.175 (at node 8)
Total number of injected packets = 5100
Total number of injected flits = 5100
Average injected packet length = 1
Total number of accepted packets = 5095
Total number of accepted flits = 5095
Average accepted packet length = 1
Total in-flight flits = 485 (485 measured)
===== Time: 6000 =====
Class 0:
Minimum packet latency = 275
Average packet latency = 800.475
Maximum packet latency = 1550
Minimum network latency = 93
Average network latency = 184.892
Maximum network latency = 505
Slowest packet = 7749
Minimum flit latency = 93
Average flit latency = 187.714
Maximum flit latency = 567
Slowest flit = 7662
Minimum fragmentation = 0
Average fragmentation = 0
Maximum fragmentation = 0
Minimum injected packet rate = 0.147667 (at node 2)
Average injected packet rate = 0.158688
Maximum injected packet rate = 0.164333 (at node 0)
Minimum accepted packet rate = 0.144333 (at node 4)
Average accepted packet rate = 0.158562
Maximum accepted packet rate = 0.173333 (at node 8)
Minimum injected flit rate = 0.147667 (at node 2)
Average injected flit rate = 0.158688
Maximum injected flit rate = 0.164333 (at node 0)
Minimum accepted flit rate = 0.144333 (at node 4)
Average accepted flit rate = 0.158562
Maximum accepted flit rate = 0.173333 (at node 8)
Total number of injected packets = 7617
Total number of injected flits = 7617
Average injected packet length = 1
Total number of accepted packets = 7611
Total number of accepted flits = 7611
Average accepted packet length = 1
Total in-flight flits = 482 (482 measured)
Draining remaining packets ...
Class 0:
Remaining flits: 14409 14442 14593 14598 14618 14626 14628 14651 14659 14667 [...] (451 flits)
Measured flits: 14409 14442 14593 14598 14618 14626 14628 14651 14659 14667 [...] (451 flits)
Class 0:
Remaining flits: 14442 14593 14598 14618 14628 14659 14667 14668 14684 14711 [...] (429 flits)
Measured flits: 14442 14593 14598 14618 14628 14659 14667 14668 14684 14711 [...] (429 flits)
Class 0:
Remaining flits: 14442 14598 14659 14668 14684 14711 14726 14732 14741 14747 [...] (401 flits)
Measured flits: 14442 14598 14659 14668 14684 14711 14726 14732 14741 14747 [...] (401 flits)
Class 0:
Remaining flits: 14442 14598 14659 14668 14684 14711 14732 14741 14747 14748 [...] (383 flits)
Measured flits: 14442 14598 14659 14668 14684 14711 14732 14741 14747 14748 [...] (383 flits)
Class 0:
Remaining flits: 14598 14659 14668 14684 14711 14732 14747 14748 14762 14771 [...] (355 flits)
Measured flits: 14598 14659 14668 14684 14711 14732 14747 14748 14762 14771 [...] (355 flits)
Class 0:
Remaining flits: 14598 14659 14668 14684 14732 14747 14771 14797 14812 14814 [...] (322 flits)
Measured flits: 14598 14659 14668 14684 14732 14747 14771 14797 14812 14814 [...] (322 flits)
Class 0:
Remaining flits: 14598 14659 14747 14797 14812 14814 14815 14817 14845 14847 [...] (287 flits)
Measured flits: 14598 14659 14747 14797 14812 14814 14815 14817 14845 14847 [...] (287 flits)
Class 0:
Remaining flits: 14659 14797 14812 14814 14815 14817 14845 14847 14857 14867 [...] (267 flits)
Measured flits: 14659 14797 14812 14814 14815 14817 14845 14847 14857 14867 [...] (267 flits)
Class 0:
Remaining flits: 14659 14812 14815 14817 14845 14847 14857 14867 14869 14892 [...] (241 flits)
Measured flits: 14659 14812 14815 14817 14845 14847 14857 14867 14869 14892 [...] (241 flits)
Class 0:
Remaining flits: 14659 14812 14815 14817 14845 14847 14867 14869 14903 14909 [...] (214 flits)
Measured flits: 14659 14812 14815 14817 14845 14847 14867 14869 14903 14909 [...] (214 flits)
Class 0:
Remaining flits: 14659 14812 14815 14817 14845 14847 14867 14869 14903 14909 [...] (201 flits)
Measured flits: 14659 14812 14815 14817 14845 14847 14867 14869 14903 14909 [...] (201 flits)
Class 0:
Remaining flits: 14812 14845 14867 14869 14903 14909 14923 14926 14934 14935 [...] (173 flits)
Measured flits: 14812 14845 14867 14869 14903 14909 14923 14926 14934 14935 [...] (173 flits)
Class 0:
Remaining flits: 14812 14845 14867 14869 14909 14923 14926 14935 14964 14986 [...] (149 flits)
Measured flits: 14812 14845 14867 14869 14909 14923 14926 14935 14964 14986 [...] (149 flits)
Class 0:
Remaining flits: 14923 14926 14935 14964 14986 14988 14994 14997 15000 15018 [...] (125 flits)
Measured flits: 14923 14926 14935 14964 14986 14988 14994 14997 15000 15018 [...] (125 flits)
Class 0:
Remaining flits: 14923 14926 14935 14964 14997 15018 15023 15027 15033 15039 [...] (106 flits)
Measured flits: 14923 14926 14935 14964 14997 15018 15023 15027 15033 15039 [...] (106 flits)
Class 0:
Remaining flits: 14923 14926 14935 14964 14997 15018 15027 15033 15039 15056 [...] (89 flits)
Measured flits: 14923 14926 14935 14964 14997 15018 15027 15033 15039 15056 [...] (89 flits)
Class 0:
Remaining flits: 14926 14964 14997 15033 15039 15056 15074 15085 15087 15099 [...] (76 flits)
Measured flits: 14926 14964 14997 15033 15039 15056 15074 15085 15087 15099 [...] (76 flits)
Class 0:
Remaining flits: 14926 14997 15033 15039 15056 15074 15087 15099 15110 15121 [...] (67 flits)
Measured flits: 14926 14997 15033 15039 15056 15074 15087 15099 15110 15121 [...] (67 flits)
Class 0:
Remaining flits: 15033 15039 15056 15074 15087 15099 15110 15125 15166 15186 [...] (55 flits)
Measured flits: 15033 15039 15056 15074 15087 15099 15110 15125 15166 15186 [...] (55 flits)
Class 0:
Remaining flits: 15033 15039 15056 15087 15099 15110 15125 15186 15207 15232 [...] (42 flits)
Measured flits: 15033 15039 15056 15087 15099 15110 15125 15186 15207 15232 [...] (42 flits)
Class 0:
Remaining flits: 15033 15039 15056 15087 15099 15125 15186 15207 15232 15235 [...] (36 flits)
Measured flits: 15033 15039 15056 15087 15099 15125 15186 15207 15232 15235 [...] (36 flits)
Class 0:
Remaining flits: 15039 15056 15125 15186 15207 15232 15236 15240 15250 15254 [...] (31 flits)
Measured flits: 15039 15056 15125 15186 15207 15232 15236 15240 15250 15254 [...] (31 flits)
Class 0:
Remaining flits: 15056 15125 15207 15232 15236 15240 15250 15254 15278 15281 [...] (27 flits)
Measured flits: 15056 15125 15207 15232 15236 15240 15250 15254 15278 15281 [...] (27 flits)
Class 0:
Remaining flits: 15125 15207 15232 15236 15240 15254 15281 15285 15308 15320 [...] (23 flits)
Measured flits: 15125 15207 15232 15236 15240 15254 15281 15285 15308 15320 [...] (23 flits)
Class 0:
Remaining flits: 15207 15232 15240 15254 15281 15285 15308 15320 15326 15331 [...] (17 flits)
Measured flits: 15207 15232 15240 15254 15281 15285 15308 15320 15326 15331 [...] (17 flits)
Class 0:
Remaining flits: 15207 15232 15240 15254 15285 15308 15320 15326 15331 15347 [...] (16 flits)
Measured flits: 15207 15232 15240 15254 15285 15308 15320 15326 15331 15347 [...] (16 flits)
Class 0:
Remaining flits: 15207 15232 15240 15285 15308 15320 15326 15331 15347 15348 [...] (15 flits)
Measured flits: 15207 15232 15240 15285 15308 15320 15326 15331 15347 15348 [...] (15 flits)
Class 0:
Remaining flits: 15207 15240 15285 15308 15320 15331 15347 15348 15349 15352 [...] (13 flits)
Measured flits: 15207 15240 15285 15308 15320 15331 15347 15348 15349 15352 [...] (13 flits)
Class 0:
Remaining flits: 15207 15240 15285 15308 15320 15331 15347 15348 15349 15352 [...] (13 flits)
Measured flits: 15207 15240 15285 15308 15320 15331 15347 15348 15349 15352 [...] (13 flits)
Class 0:
Remaining flits: 15207 15240 15285 15308 15320 15331 15347 15348 15349 15352 [...] (13 flits)
Measured flits: 15207 15240 15285 15308 15320 15331 15347 15348 15349 15352 [...] (13 flits)
Class 0:
Remaining flits: 15207 15240 15285 15308 15320 15331 15347 15348 15349 15352 [...] (13 flits)
Measured flits: 15207 15240 15285 15308 15320 15331 15347 15348 15349 15352 [...] (13 flits)
Class 0:
Remaining flits: 15207 15240 15285 15308 15320 15331 15347 15348 15349 15352 [...] (13 flits)
Measured flits: 15207 15240 15285 15308 15320 15331 15347 15348 15349 15352 [...] (13 flits)
Class 0:
Remaining flits: 15207 15240 15285 15308 15320 15331 15347 15348 15349 15352 [...] (13 flits)
Measured flits: 15207 15240 15285 15308 15320 15331 15347 15348 15349 15352 [...] (13 flits)
Class 0:
Remaining flits: 15207 15240 15285 15308 15320 15331 15347 15348 15349 15352 [...] (13 flits)
Measured flits: 15207 15240 15285 15308 15320 15331 15347 15348 15349 15352 [...] (13 flits)
Class 0:
Remaining flits: 15207 15240 15285 15308 15320 15331 15347 15348 15349 15352 [...] (13 flits)
Measured flits: 15207 15240 15285 15308 15320 15331 15347 15348 15349 15352 [...] (13 flits)
Class 0:
Remaining flits: 15207 15240 15285 15308 15320 15331 15347 15348 15349 15352 [...] (13 flits)
Measured flits: 15207 15240 15285 15308 15320 15331 15347 15348 15349 15352 [...] (13 flits)
Class 0:
Remaining flits: 15207 15240 15285 15308 15320 15331 15347 15348 15349 15352 [...] (13 flits)
Measured flits: 15207 15240 15285 15308 15320 15331 15347 15348 15349 15352 [...] (13 flits)
Class 0:
Remaining flits: 15207 15240 15285 15308 15320 15331 15347 15348 15349 15352 [...] (13 flits)
Measured flits: 15207 15240 15285 15308 15320 15331 15347 15348 15349 15352 [...] (13 flits)
Class 0:
Remaining flits: 15207 15240 15285 15308 15320 15331 15347 15348 15349 15352 [...] (13 flits)
Measured flits: 15207 15240 15285 15308 15320 15331 15347 15348 15349 15352 [...] (13 flits)
Class 0:
Remaining flits: 15207 15240 15285 15308 15320 15331 15347 15348 15349 15352 [...] (13 flits)
Measured flits: 15207 15240 15285 15308 15320 15331 15347 15348 15349 15352 [...] (13 flits)
Class 0:
Remaining flits: 15207 15240 15285 15308 15320 15331 15347 15348 15349 15352 [...] (13 flits)
Measured flits: 15207 15240 15285 15308 15320 15331 15347 15348 15349 15352 [...] (13 flits)
Class 0:
Remaining flits: 15207 15240 15285 15308 15320 15331 15347 15348 15349 15352 [...] (13 flits)
Measured flits: 15207 15240 15285 15308 15320 15331 15347 15348 15349 15352 [...] (13 flits)
Class 0:
Remaining flits: 15207 15240 15285 15308 15320 15331 15347 15348 15349 15352 [...] (13 flits)
Measured flits: 15207 15240 15285 15308 15320 15331 15347 15348 15349 15352 [...] (13 flits)
Class 0:
Remaining flits: 15207 15240 15285 15308 15320 15331 15347 15348 15349 15352 [...] (13 flits)
Measured flits: 15207 15240 15285 15308 15320 15331 15347 15348 15349 15352 [...] (13 flits)
Class 0:
Remaining flits: 15207 15240 15285 15308 15320 15331 15347 15348 15349 15352 [...] (13 flits)
Measured flits: 15207 15240 15285 15308 15320 15331 15347 15348 15349 15352 [...] (13 flits)
Class 0:
Remaining flits: 15207 15240 15285 15308 15320 15331 15347 15348 15349 15352 [...] (13 flits)
Measured flits: 15207 15240 15285 15308 15320 15331 15347 15348 15349 15352 [...] (13 flits)
Class 0:
Remaining flits: 15207 15240 15285 15308 15320 15331 15347 15348 15349 15352 [...] (13 flits)
Measured flits: 15207 15240 15285 15308 15320 15331 15347 15348 15349 15352 [...] (13 flits)
Class 0:
Remaining flits: 15207 15240 15285 15308 15320 15331 15347 15348 15349 15352 [...] (13 flits)
Measured flits: 15207 15240 15285 15308 15320 15331 15347 15348 15349 15352 [...] (13 flits)
Class 0:
Remaining flits: 15207 15240 15285 15308 15320 15331 15347 15348 15349 15352 [...] (13 flits)
Measured flits: 15207 15240 15285 15308 15320 15331 15347 15348 15349 15352 [...] (13 flits)
Class 0:
Remaining flits: 15207 15240 15285 15308 15320 15331 15347 15348 15349 15352 [...] (13 flits)
Measured flits: 15207 15240 15285 15308 15320 15331 15347 15348 15349 15352 [...] (13 flits)
Class 0:
Remaining flits: 15207 15240 15285 15308 15320 15331 15347 15348 15349 15352 [...] (13 flits)
Measured flits: 15207 15240 15285 15308 15320 15331 15347 15348 15349 15352 [...] (13 flits)
Class 0:
Remaining flits: 15207 15240 15285 15308 15320 15331 15347 15348 15349 15352 [...] (13 flits)
Measured flits: 15207 15240 15285 15308 15320 15331 15347 15348 15349 15352 [...] (13 flits)
Class 0:
Remaining flits: 15207 15240 15285 15308 15320 15331 15347 15348 15349 15352 [...] (13 flits)
Measured flits: 15207 15240 15285 15308 15320 15331 15347 15348 15349 15352 [...] (13 flits)
Class 0:
Remaining flits: 15207 15240 15285 15308 15320 15331 15347 15348 15349 15352 [...] (13 flits)
Measured flits: 15207 15240 15285 15308 15320 15331 15347 15348 15349 15352 [...] (13 flits)
Class 0:
Remaining flits: 15207 15240 15285 15308 15320 15331 15347 15348 15349 15352 [...] (13 flits)
Measured flits: 15207 15240 15285 15308 15320 15331 15347 15348 15349 15352 [...] (13 flits)
Class 0:
Remaining flits: 15207 15240 15285 15308 15320 15331 15347 15348 15349 15352 [...] (13 flits)
Measured flits: 15207 15240 15285 15308 15320 15331 15347 15348 15349 15352 [...] (13 flits)
Class 0:
Remaining flits: 15207 15240 15285 15308 15320 15331 15347 15348 15349 15352 [...] (13 flits)
Measured flits: 15207 15240 15285 15308 15320 15331 15347 15348 15349 15352 [...] (13 flits)
Class 0:
Remaining flits: 15207 15240 15285 15308 15320 15331 15347 15348 15349 15352 [...] (13 flits)
Measured flits: 15207 15240 15285 15308 15320 15331 15347 15348 15349 15352 [...] (13 flits)
Class 0:
Remaining flits: 15207 15240 15285 15308 15320 15331 15347 15348 15349 15352 [...] (13 flits)
Measured flits: 15207 15240 15285 15308 15320 15331 15347 15348 15349 15352 [...] (13 flits)
Class 0:
Remaining flits: 15207 15240 15285 15308 15320 15331 15347 15348 15349 15352 [...] (13 flits)
Measured flits: 15207 15240 15285 15308 15320 15331 15347 15348 15349 15352 [...] (13 flits)
Class 0:
Remaining flits: 15207 15240 15285 15308 15320 15331 15347 15348 15349 15352 [...] (13 flits)
Measured flits: 15207 15240 15285 15308 15320 15331 15347 15348 15349 15352 [...] (13 flits)
Class 0:
Remaining flits: 15207 15240 15285 15308 15320 15331 15347 15348 15349 15352 [...] (13 flits)
Measured flits: 15207 15240 15285 15308 15320 15331 15347 15348 15349 15352 [...] (13 flits)
Class 0:
Remaining flits: 15207 15240 15285 15308 15320 15331 15347 15348 15349 15352 [...] (13 flits)
Measured flits: 15207 15240 15285 15308 15320 15331 15347 15348 15349 15352 [...] (13 flits)
Class 0:
Remaining flits: 15207 15240 15285 15308 15320 15331 15347 15348 15349 15352 [...] (13 flits)
Measured flits: 15207 15240 15285 15308 15320 15331 15347 15348 15349 15352 [...] (13 flits)
Class 0:
Remaining flits: 15207 15240 15285 15308 15320 15331 15347 15348 15349 15352 [...] (13 flits)
Measured flits: 15207 15240 15285 15308 15320 15331 15347 15348 15349 15352 [...] (13 flits)
Class 0:
Remaining flits: 15207 15240 15285 15308 15320 15331 15347 15348 15349 15352 [...] (13 flits)
Measured flits: 15207 15240 15285 15308 15320 15331 15347 15348 15349 15352 [...] (13 flits)
Class 0:
Remaining flits: 15207 15240 15285 15308 15320 15331 15347 15348 15349 15352 [...] (13 flits)
Measured flits: 15207 15240 15285 15308 15320 15331 15347 15348 15349 15352 [...] (13 flits)
Class 0:
Remaining flits: 15207 15240 15285 15308 15320 15331 15347 15348 15349 15352 [...] (13 flits)
Measured flits: 15207 15240 15285 15308 15320 15331 15347 15348 15349 15352 [...] (13 flits)
Class 0:
Remaining flits: 15207 15240 15285 15308 15320 15331 15347 15348 15349 15352 [...] (13 flits)
Measured flits: 15207 15240 15285 15308 15320 15331 15347 15348 15349 15352 [...] (13 flits)
Class 0:
Remaining flits: 15207 15240 15285 15308 15320 15331 15347 15348 15349 15352 [...] (13 flits)
Measured flits: 15207 15240 15285 15308 15320 15331 15347 15348 15349 15352 [...] (13 flits)
Class 0:
Remaining flits: 15207 15240 15285 15308 15320 15331 15347 15348 15349 15352 [...] (13 flits)
Measured flits: 15207 15240 15285 15308 15320 15331 15347 15348 15349 15352 [...] (13 flits)
Class 0:
Remaining flits: 15207 15240 15285 15308 15320 15331 15347 15348 15349 15352 [...] (13 flits)
Measured flits: 15207 15240 15285 15308 15320 15331 15347 15348 15349 15352 [...] (13 flits)
Class 0:
Remaining flits: 15207 15240 15285 15308 15320 15331 15347 15348 15349 15352 [...] (13 flits)
Measured flits: 15207 15240 15285 15308 15320 15331 15347 15348 15349 15352 [...] (13 flits)
Class 0:
Remaining flits: 15207 15240 15285 15308 15320 15331 15347 15348 15349 15352 [...] (13 flits)
Measured flits: 15207 15240 15285 15308 15320 15331 15347 15348 15349 15352 [...] (13 flits)
Class 0:
Remaining flits: 15207 15240 15285 15308 15320 15331 15347 15348 15349 15352 [...] (13 flits)
Measured flits: 15207 15240 15285 15308 15320 15331 15347 15348 15349 15352 [...] (13 flits)
Class 0:
Remaining flits: 15207 15240 15285 15308 15320 15331 15347 15348 15349 15352 [...] (13 flits)
Measured flits: 15207 15240 15285 15308 15320 15331 15347 15348 15349 15352 [...] (13 flits)
Class 0:
Remaining flits: 15207 15240 15285 15308 15320 15331 15347 15348 15349 15352 [...] (13 flits)
Measured flits: 15207 15240 15285 15308 15320 15331 15347 15348 15349 15352 [...] (13 flits)
Class 0:
Remaining flits: 15207 15240 15285 15308 15320 15331 15347 15348 15349 15352 [...] (13 flits)
Measured flits: 15207 15240 15285 15308 15320 15331 15347 15348 15349 15352 [...] (13 flits)
Class 0:
Remaining flits: 15207 15240 15285 15308 15320 15331 15347 15348 15349 15352 [...] (13 flits)
Measured flits: 15207 15240 15285 15308 15320 15331 15347 15348 15349 15352 [...] (13 flits)
Class 0:
Remaining flits: 15207 15240 15285 15308 15320 15331 15347 15348 15349 15352 [...] (13 flits)
Measured flits: 15207 15240 15285 15308 15320 15331 15347 15348 15349 15352 [...] (13 flits)
Class 0:
Remaining flits: 15207 15240 15285 15308 15320 15331 15347 15348 15349 15352 [...] (13 flits)
Measured flits: 15207 15240 15285 15308 15320 15331 15347 15348 15349 15352 [...] (13 flits)
Class 0:
Remaining flits: 15207 15240 15285 15308 15320 15331 15347 15348 15349 15352 [...] (13 flits)
Measured flits: 15207 15240 15285 15308 15320 15331 15347 15348 15349 15352 [...] (13 flits)
Class 0:
Remaining flits: 15207 15240 15285 15308 15320 15331 15347 15348 15349 15352 [...] (13 flits)
Measured flits: 15207 15240 15285 15308 15320 15331 15347 15348 15349 15352 [...] (13 flits)
Class 0:
Remaining flits: 15207 15240 15285 15308 15320 15331 15347 15348 15349 15352 [...] (13 flits)
Measured flits: 15207 15240 15285 15308 15320 15331 15347 15348 15349 15352 [...] (13 flits)
Class 0:
Remaining flits: 15207 15240 15285 15308 15320 15331 15347 15348 15349 15352 [...] (13 flits)
Measured flits: 15207 15240 15285 15308 15320 15331 15347 15348 15349 15352 [...] (13 flits)
Class 0:
Remaining flits: 15207 15240 15285 15308 15320 15331 15347 15348 15349 15352 [...] (13 flits)
Measured flits: 15207 15240 15285 15308 15320 15331 15347 15348 15349 15352 [...] (13 flits)
Class 0:
Remaining flits: 15207 15240 15285 15308 15320 15331 15347 15348 15349 15352 [...] (13 flits)
Measured flits: 15207 15240 15285 15308 15320 15331 15347 15348 15349 15352 [...] (13 flits)
Class 0:
Remaining flits: 15207 15240 15285 15308 15320 15331 15347 15348 15349 15352 [...] (13 flits)
Measured flits: 15207 15240 15285 15308 15320 15331 15347 15348 15349 15352 [...] (13 flits)
Class 0:
Remaining flits: 15207 15240 15285 15308 15320 15331 15347 15348 15349 15352 [...] (13 flits)
Measured flits: 15207 15240 15285 15308 15320 15331 15347 15348 15349 15352 [...] (13 flits)
Class 0:
Remaining flits: 15207 15240 15285 15308 15320 15331 15347 15348 15349 15352 [...] (13 flits)
Measured flits: 15207 15240 15285 15308 15320 15331 15347 15348 15349 15352 [...] (13 flits)
Class 0:
Remaining flits: 15207 15240 15285 15308 15320 15331 15347 15348 15349 15352 [...] (13 flits)
Measured flits: 15207 15240 15285 15308 15320 15331 15347 15348 15349 15352 [...] (13 flits)
Class 0:
Remaining flits: 15207 15240 15285 15308 15320 15331 15347 15348 15349 15352 [...] (13 flits)
Measured flits: 15207 15240 15285 15308 15320 15331 15347 15348 15349 15352 [...] (13 flits)
Class 0:
Remaining flits: 15207 15240 15285 15308 15320 15331 15347 15348 15349 15352 [...] (13 flits)
Measured flits: 15207 15240 15285 15308 15320 15331 15347 15348 15349 15352 [...] (13 flits)
Class 0:
Remaining flits: 15207 15240 15285 15308 15320 15331 15347 15348 15349 15352 [...] (13 flits)
Measured flits: 15207 15240 15285 15308 15320 15331 15347 15348 15349 15352 [...] (13 flits)
Class 0:
Remaining flits: 15207 15240 15285 15308 15320 15331 15347 15348 15349 15352 [...] (13 flits)
Measured flits: 15207 15240 15285 15308 15320 15331 15347 15348 15349 15352 [...] (13 flits)
Class 0:
Remaining flits: 15207 15240 15285 15308 15320 15331 15347 15348 15349 15352 [...] (13 flits)
Measured flits: 15207 15240 15285 15308 15320 15331 15347 15348 15349 15352 [...] (13 flits)
Class 0:
Remaining flits: 15207 15240 15285 15308 15320 15331 15347 15348 15349 15352 [...] (13 flits)
Measured flits: 15207 15240 15285 15308 15320 15331 15347 15348 15349 15352 [...] (13 flits)
Class 0:
Remaining flits: 15207 15240 15285 15308 15320 15331 15347 15348 15349 15352 [...] (13 flits)
Measured flits: 15207 15240 15285 15308 15320 15331 15347 15348 15349 15352 [...] (13 flits)
Class 0:
Remaining flits: 15207 15240 15285 15308 15320 15331 15347 15348 15349 15352 [...] (13 flits)
Measured flits: 15207 15240 15285 15308 15320 15331 15347 15348 15349 15352 [...] (13 flits)
Class 0:
Remaining flits: 15207 15240 15285 15308 15320 15331 15347 15348 15349 15352 [...] (13 flits)
Measured flits: 15207 15240 15285 15308 15320 15331 15347 15348 15349 15352 [...] (13 flits)
Class 0:
Remaining flits: 15207 15240 15285 15308 15320 15331 15347 15348 15349 15352 [...] (13 flits)
Measured flits: 15207 15240 15285 15308 15320 15331 15347 15348 15349 15352 [...] (13 flits)
Time taken is 7000 cycles
====== Traffic class 0 ======

Total number of flits generated = 15359, changed lanes = 15189
Overall minimum packet latency = 275 (1 samples)
Overall average packet latency = 815.842 (1 samples)
Overall maximum packet latency = 1573 (1 samples)
Overall minimum network latency = 93 (1 samples)
Overall average network latency = 185.714 (1 samples)
Overall maximum network latency = 505 (1 samples)
Overall minimum flit latency = 93 (1 samples)
Overall average flit latency = 188.323 (1 samples)
Overall maximum flit latency = 567 (1 samples)
Overall minimum fragmentation = 0 (1 samples)
Overall average fragmentation = 0 (1 samples)
Overall maximum fragmentation = 0 (1 samples)
Overall minimum injected packet rate = 0.147667 (1 samples)
Overall average injected packet rate = 0.158688 (1 samples)
Overall maximum injected packet rate = 0.164333 (1 samples)
Overall minimum accepted packet rate = 0.144333 (1 samples)
Overall average accepted packet rate = 0.158562 (1 samples)
Overall maximum accepted packet rate = 0.173333 (1 samples)
Overall minimum injected flit rate = 0.147667 (1 samples)
Overall average injected flit rate = 0.158688 (1 samples)
Overall maximum injected flit rate = 0.164333 (1 samples)
Overall minimum accepted flit rate = 0.144333 (1 samples)
Overall average accepted flit rate = 0.158562 (1 samples)
Overall maximum accepted flit rate = 0.173333 (1 samples)
Overall average injected packet size = 1 (1 samples)
Overall average accepted packet size = 1 (1 samples)
Overall average hops = 3.50993 (1 samples)
Overall throughput of the network (flits/cycle) = 5.11533
Overall throughput of the network (packets/cycle) = 5.11533
Total run time 6762.82
