make: Nothing to be done for 'all'.
Master: Running timer....
Master: Running SRC....
BEGIN Configuration File: ./examples/bitrev
// Topology

topology = mesh;
k = 4;
n = 2;

// Routing
routing_function = dor;

// Flow control
num_vcs     = 4;
vc_buf_size = 4;
wait_for_tail_credit = 0;

// Router architecture
vc_allocator = islip;
sw_allocator = islip;
alloc_iters  = 1;

credit_delay   = 1;
routing_delay  = 1;
vc_alloc_delay = 1;
sw_alloc_delay = 1;

input_speedup     = 1;
output_speedup    = 1;
internal_speedup  = 1.0;

vc_busy_when_full = 0;

// Traffic
traffic = uniform;
packet_size = 1;

// Simulation
sim_type = throughput;

injection_rate = 0.45;

END Configuration File: ./examples/bitrev
===== Time: 1000 =====
Class 0:
Minimum packet latency = 14
Average packet latency = 352.102
Maximum packet latency = 721
Minimum network latency = 15
Average network latency = 150.525
Maximum network latency = 339
Slowest packet = 328
Minimum flit latency = 15
Average flit latency = 150.525
Maximum flit latency = 339
Slowest flit = 1511
Minimum fragmentation = 0
Average fragmentation = 0
Maximum fragmentation = 0
Minimum injected packet rate = 0.15 (at node 10)
Average injected packet rate = 0.178
Maximum injected packet rate = 0.182 (at node 3)
Minimum accepted packet rate = 0.137 (at node 11)
Average accepted packet rate = 0.1505
Maximum accepted packet rate = 0.163 (at node 4)
Minimum injected flit rate = 0.15 (at node 10)
Average injected flit rate = 0.178
Maximum injected flit rate = 0.182 (at node 3)
Minimum accepted flit rate = 0.137 (at node 11)
Average accepted flit rate = 0.1505
Maximum accepted flit rate = 0.163 (at node 4)
Total number of injected packets = 2848
Total number of injected flits = 2848
Average injected packet length = 1
Total number of accepted packets = 2408
Total number of accepted flits = 2408
Average accepted packet length = 1
Total in-flight flits = 455 (0 measured)
===== Time: 2000 =====
Class 0:
Minimum packet latency = 14
Average packet latency = 676.818
Maximum packet latency = 1397
Minimum network latency = 15
Average network latency = 162.608
Maximum network latency = 392
Slowest packet = 328
Minimum flit latency = 15
Average flit latency = 162.608
Maximum flit latency = 392
Slowest flit = 2685
Minimum fragmentation = 0
Average fragmentation = 0
Maximum fragmentation = 0
Minimum injected packet rate = 0.151 (at node 10)
Average injected packet rate = 0.169844
Maximum injected packet rate = 0.1745 (at node 3)
Minimum accepted packet rate = 0.1435 (at node 4)
Average accepted packet rate = 0.155844
Maximum accepted packet rate = 0.1665 (at node 15)
Minimum injected flit rate = 0.151 (at node 10)
Average injected flit rate = 0.169844
Maximum injected flit rate = 0.1745 (at node 3)
Minimum accepted flit rate = 0.1435 (at node 4)
Average accepted flit rate = 0.155844
Maximum accepted flit rate = 0.1665 (at node 15)
Total number of injected packets = 5435
Total number of injected flits = 5435
Average injected packet length = 1
Total number of accepted packets = 4987
Total number of accepted flits = 4987
Average accepted packet length = 1
Total in-flight flits = 460 (0 measured)
===== Time: 3000 =====
Class 0:
Minimum packet latency = 1222
Average packet latency = 1622.21
Maximum packet latency = 2072
Minimum network latency = 94
Average network latency = 178.825
Maximum network latency = 467
Slowest packet = 5098
Minimum flit latency = 94
Average flit latency = 178.825
Maximum flit latency = 467
Slowest flit = 6795
Minimum fragmentation = 0
Average fragmentation = 0
Maximum fragmentation = 0
Minimum injected packet rate = 0.133 (at node 6)
Average injected packet rate = 0.159125
Maximum injected packet rate = 0.167 (at node 12)
Minimum accepted packet rate = 0.145 (at node 4)
Average accepted packet rate = 0.158125
Maximum accepted packet rate = 0.178 (at node 0)
Minimum injected flit rate = 0.133 (at node 6)
Average injected flit rate = 0.159125
Maximum injected flit rate = 0.167 (at node 12)
Minimum accepted flit rate = 0.145 (at node 4)
Average accepted flit rate = 0.158125
Maximum accepted flit rate = 0.178 (at node 0)
Total number of injected packets = 2546
Total number of injected flits = 2546
Average injected packet length = 1
Total number of accepted packets = 2530
Total number of accepted flits = 2530
Average accepted packet length = 1
Total in-flight flits = 479 (0 measured)
===== Time: 4000 =====
Class 0:
Minimum packet latency = 1911
Average packet latency = 2327.81
Maximum packet latency = 2751
Minimum network latency = 88
Average network latency = 177.133
Maximum network latency = 408
Slowest packet = 8010
Minimum flit latency = 88
Average flit latency = 183.093
Maximum flit latency = 541
Slowest flit = 7420
Minimum fragmentation = 0
Average fragmentation = 0
Maximum fragmentation = 0
Minimum injected packet rate = 0.141 (at node 6)
Average injected packet rate = 0.158812
Maximum injected packet rate = 0.167 (at node 0)
Minimum accepted packet rate = 0.128 (at node 4)
Average accepted packet rate = 0.157625
Maximum accepted packet rate = 0.186 (at node 7)
Minimum injected flit rate = 0.141 (at node 6)
Average injected flit rate = 0.158812
Maximum injected flit rate = 0.167 (at node 0)
Minimum accepted flit rate = 0.128 (at node 4)
Average accepted flit rate = 0.157625
Maximum accepted flit rate = 0.186 (at node 7)
Total number of injected packets = 2541
Total number of injected flits = 2541
Average injected packet length = 1
Total number of accepted packets = 2522
Total number of accepted flits = 2522
Average accepted packet length = 1
Total in-flight flits = 498 (498 measured)
===== Time: 5000 =====
Class 0:
Minimum packet latency = 1911
Average packet latency = 2659.13
Maximum packet latency = 3386
Minimum network latency = 88
Average network latency = 183.806
Maximum network latency = 496
Slowest packet = 8010
Minimum flit latency = 88
Average flit latency = 186.141
Maximum flit latency = 541
Slowest flit = 7420
Minimum fragmentation = 0
Average fragmentation = 0
Maximum fragmentation = 0
Minimum injected packet rate = 0.1425 (at node 13)
Average injected packet rate = 0.158688
Maximum injected packet rate = 0.1675 (at node 0)
Minimum accepted packet rate = 0.137 (at node 4)
Average accepted packet rate = 0.158375
Maximum accepted packet rate = 0.177 (at node 7)
Minimum injected flit rate = 0.1425 (at node 13)
Average injected flit rate = 0.158688
Maximum injected flit rate = 0.1675 (at node 0)
Minimum accepted flit rate = 0.137 (at node 4)
Average accepted flit rate = 0.158375
Maximum accepted flit rate = 0.177 (at node 7)
Total number of injected packets = 5078
Total number of injected flits = 5078
Average injected packet length = 1
Total number of accepted packets = 5068
Total number of accepted flits = 5068
Average accepted packet length = 1
Total in-flight flits = 489 (489 measured)
===== Time: 6000 =====
Class 0:
Minimum packet latency = 1911
Average packet latency = 2983.9
Maximum packet latency = 3999
Minimum network latency = 88
Average network latency = 187.319
Maximum network latency = 566
Slowest packet = 8010
Minimum flit latency = 88
Average flit latency = 188.657
Maximum flit latency = 566
Slowest flit = 14072
Minimum fragmentation = 0
Average fragmentation = 0
Maximum fragmentation = 0
Minimum injected packet rate = 0.149667 (at node 13)
Average injected packet rate = 0.15825
Maximum injected packet rate = 0.165 (at node 8)
Minimum accepted packet rate = 0.142667 (at node 4)
Average accepted packet rate = 0.158062
Maximum accepted packet rate = 0.172667 (at node 7)
Minimum injected flit rate = 0.149667 (at node 13)
Average injected flit rate = 0.15825
Maximum injected flit rate = 0.165 (at node 8)
Minimum accepted flit rate = 0.142667 (at node 4)
Average accepted flit rate = 0.158062
Maximum accepted flit rate = 0.172667 (at node 7)
Total number of injected packets = 7596
Total number of injected flits = 7596
Average injected packet length = 1
Total number of accepted packets = 7587
Total number of accepted flits = 7587
Average accepted packet length = 1
Total in-flight flits = 488 (488 measured)
Draining remaining packets ...
Class 0:
Remaining flits: 14236 14253 14269 14348 14392 14464 14471 14478 14528 14554 [...] (462 flits)
Measured flits: 14236 14253 14269 14348 14392 14464 14471 14478 14528 14554 [...] (462 flits)
Class 0:
Remaining flits: 14253 14269 14348 14392 14464 14471 14478 14554 14599 14687 [...] (439 flits)
Measured flits: 14253 14269 14348 14392 14464 14471 14478 14554 14599 14687 [...] (439 flits)
Class 0:
Remaining flits: 14253 14269 14348 14392 14464 14471 14478 14554 14599 14687 [...] (417 flits)
Measured flits: 14253 14269 14348 14392 14464 14471 14478 14554 14599 14687 [...] (417 flits)
Class 0:
Remaining flits: 14253 14269 14392 14464 14478 14554 14599 14687 14714 14823 [...] (391 flits)
Measured flits: 14253 14269 14392 14464 14478 14554 14599 14687 14714 14823 [...] (391 flits)
Class 0:
Remaining flits: 14253 14269 14392 14464 14478 14554 14599 14687 14714 14823 [...] (377 flits)
Measured flits: 14253 14269 14392 14464 14478 14554 14599 14687 14714 14823 [...] (377 flits)
Class 0:
Remaining flits: 14253 14269 14392 14464 14478 14554 14599 14687 14714 14823 [...] (354 flits)
Measured flits: 14253 14269 14392 14464 14478 14554 14599 14687 14714 14823 [...] (354 flits)
Class 0:
Remaining flits: 14269 14392 14464 14478 14554 14599 14687 14714 14823 14829 [...] (322 flits)
Measured flits: 14269 14392 14464 14478 14554 14599 14687 14714 14823 14829 [...] (322 flits)
Class 0:
Remaining flits: 14269 14392 14464 14478 14554 14599 14687 14714 14823 14829 [...] (299 flits)
Measured flits: 14269 14392 14464 14478 14554 14599 14687 14714 14823 14829 [...] (299 flits)
Class 0:
Remaining flits: 14392 14464 14554 14599 14687 14714 14823 14829 14860 14875 [...] (278 flits)
Measured flits: 14392 14464 14554 14599 14687 14714 14823 14829 14860 14875 [...] (278 flits)
Class 0:
Remaining flits: 14392 14464 14554 14687 14714 14823 14829 14860 14875 14895 [...] (246 flits)
Measured flits: 14392 14464 14554 14687 14714 14823 14829 14860 14875 14895 [...] (246 flits)
Class 0:
Remaining flits: 14392 14464 14554 14687 14714 14829 14860 14875 14895 14904 [...] (219 flits)
Measured flits: 14392 14464 14554 14687 14714 14829 14860 14875 14895 14904 [...] (219 flits)
Class 0:
Remaining flits: 14392 14464 14554 14687 14714 14829 14860 14875 14895 14904 [...] (195 flits)
Measured flits: 14392 14464 14554 14687 14714 14829 14860 14875 14895 14904 [...] (195 flits)
Class 0:
Remaining flits: 14464 14554 14687 14714 14829 14860 14875 14895 14904 14938 [...] (175 flits)
Measured flits: 14464 14554 14687 14714 14829 14860 14875 14895 14904 14938 [...] (175 flits)
Class 0:
Remaining flits: 14464 14554 14687 14714 14829 14860 14875 14904 14938 15032 [...] (156 flits)
Measured flits: 14464 14554 14687 14714 14829 14860 14875 14904 14938 15032 [...] (156 flits)
Class 0:
Remaining flits: 14464 14554 14687 14829 14860 14875 14904 14938 15032 15067 [...] (137 flits)
Measured flits: 14464 14554 14687 14829 14860 14875 14904 14938 15032 15067 [...] (137 flits)
Class 0:
Remaining flits: 14464 14554 14687 14829 14860 14875 14904 15032 15102 15127 [...] (115 flits)
Measured flits: 14464 14554 14687 14829 14860 14875 14904 15032 15102 15127 [...] (115 flits)
Class 0:
Remaining flits: 14554 14687 14829 14860 14875 14904 15032 15102 15127 15137 [...] (101 flits)
Measured flits: 14554 14687 14829 14860 14875 14904 15032 15102 15127 15137 [...] (101 flits)
Class 0:
Remaining flits: 14554 14687 14829 14860 14875 14904 15032 15102 15127 15137 [...] (88 flits)
Measured flits: 14554 14687 14829 14860 14875 14904 15032 15102 15127 15137 [...] (88 flits)
Class 0:
Remaining flits: 14554 14687 14829 14860 14875 14904 15032 15102 15127 15137 [...] (72 flits)
Measured flits: 14554 14687 14829 14860 14875 14904 15032 15102 15127 15137 [...] (72 flits)
Class 0:
Remaining flits: 14554 14687 14829 14860 14875 14904 15032 15102 15127 15137 [...] (63 flits)
Measured flits: 14554 14687 14829 14860 14875 14904 15032 15102 15127 15137 [...] (63 flits)
Class 0:
Remaining flits: 14554 14687 14829 14860 14904 15032 15102 15127 15137 15169 [...] (54 flits)
Measured flits: 14554 14687 14829 14860 14904 15032 15102 15127 15137 15169 [...] (54 flits)
Class 0:
Remaining flits: 14554 14687 14829 14860 14904 15032 15102 15127 15137 15169 [...] (46 flits)
Measured flits: 14554 14687 14829 14860 14904 15032 15102 15127 15137 15169 [...] (46 flits)
Class 0:
Remaining flits: 14829 14860 14904 15032 15102 15127 15137 15169 15193 15218 [...] (36 flits)
Measured flits: 14829 14860 14904 15032 15102 15127 15137 15169 15193 15218 [...] (36 flits)
Class 0:
Remaining flits: 14829 14860 14904 15032 15102 15127 15137 15169 15193 15218 [...] (31 flits)
Measured flits: 14829 14860 14904 15032 15102 15127 15137 15169 15193 15218 [...] (31 flits)
Class 0:
Remaining flits: 14829 14860 14904 15032 15102 15127 15137 15169 15193 15218 [...] (29 flits)
Measured flits: 14829 14860 14904 15032 15102 15127 15137 15169 15193 15218 [...] (29 flits)
Class 0:
Remaining flits: 14860 14904 15032 15102 15127 15137 15169 15193 15218 15253 [...] (27 flits)
Measured flits: 14860 14904 15032 15102 15127 15137 15169 15193 15218 15253 [...] (27 flits)
Class 0:
Remaining flits: 14860 14904 15032 15102 15127 15137 15169 15193 15218 15253 [...] (26 flits)
Measured flits: 14860 14904 15032 15102 15127 15137 15169 15193 15218 15253 [...] (26 flits)
Class 0:
Remaining flits: 14860 14904 15032 15102 15127 15137 15169 15193 15218 15414 [...] (23 flits)
Measured flits: 14860 14904 15032 15102 15127 15137 15169 15193 15218 15414 [...] (23 flits)
Class 0:
Remaining flits: 14860 14904 15032 15102 15127 15137 15169 15193 15218 15414 [...] (23 flits)
Measured flits: 14860 14904 15032 15102 15127 15137 15169 15193 15218 15414 [...] (23 flits)
Class 0:
Remaining flits: 14904 15032 15102 15127 15169 15193 15218 15414 15425 15448 [...] (19 flits)
Measured flits: 14904 15032 15102 15127 15169 15193 15218 15414 15425 15448 [...] (19 flits)
Class 0:
Remaining flits: 15032 15127 15193 15218 15414 15425 15448 15546 15570 15577 [...] (16 flits)
Measured flits: 15032 15127 15193 15218 15414 15425 15448 15546 15570 15577 [...] (16 flits)
Class 0:
Remaining flits: 15032 15127 15193 15218 15414 15448 15546 15570 15577 15582 [...] (15 flits)
Measured flits: 15032 15127 15193 15218 15414 15448 15546 15570 15577 15582 [...] (15 flits)
Class 0:
Remaining flits: 15127 15193 15414 15448 15546 15570 15577 15582 15583 15587 [...] (13 flits)
Measured flits: 15127 15193 15414 15448 15546 15570 15577 15582 15583 15587 [...] (13 flits)
Class 0:
Remaining flits: 15127 15193 15414 15448 15546 15570 15577 15582 15583 15587 [...] (13 flits)
Measured flits: 15127 15193 15414 15448 15546 15570 15577 15582 15583 15587 [...] (13 flits)
Class 0:
Remaining flits: 15193 15448 15546 15570 15577 15582 15583 15587 15588 15589 [...] (11 flits)
Measured flits: 15193 15448 15546 15570 15577 15582 15583 15587 15588 15589 [...] (11 flits)
Class 0:
Remaining flits: 15448 15570 15577 15582 15583 15587 15588 15589 15591 (9 flits)
Measured flits: 15448 15570 15577 15582 15583 15587 15588 15589 15591 (9 flits)
Class 0:
Remaining flits: 15570 15577 15582 15583 15587 15588 15589 15591 (8 flits)
Measured flits: 15570 15577 15582 15583 15587 15588 15589 15591 (8 flits)
Class 0:
Remaining flits: 15570 15577 15582 15583 15587 15588 15589 15591 (8 flits)
Measured flits: 15570 15577 15582 15583 15587 15588 15589 15591 (8 flits)
Class 0:
Remaining flits: 15570 15577 15582 15583 15587 15588 15589 15591 (8 flits)
Measured flits: 15570 15577 15582 15583 15587 15588 15589 15591 (8 flits)
Class 0:
Remaining flits: 15570 15577 15582 15583 15587 15588 15589 15591 (8 flits)
Measured flits: 15570 15577 15582 15583 15587 15588 15589 15591 (8 flits)
Class 0:
Remaining flits: 15570 15577 15582 15583 15587 15588 15589 15591 (8 flits)
Measured flits: 15570 15577 15582 15583 15587 15588 15589 15591 (8 flits)
Class 0:
Remaining flits: 15570 15577 15582 15583 15587 15588 15589 15591 (8 flits)
Measured flits: 15570 15577 15582 15583 15587 15588 15589 15591 (8 flits)
Class 0:
Remaining flits: 15570 15577 15582 15583 15587 15588 15589 15591 (8 flits)
Measured flits: 15570 15577 15582 15583 15587 15588 15589 15591 (8 flits)
Class 0:
Remaining flits: 15570 15577 15582 15583 15587 15588 15589 15591 (8 flits)
Measured flits: 15570 15577 15582 15583 15587 15588 15589 15591 (8 flits)
Class 0:
Remaining flits: 15570 15577 15582 15583 15587 15588 15589 15591 (8 flits)
Measured flits: 15570 15577 15582 15583 15587 15588 15589 15591 (8 flits)
Class 0:
Remaining flits: 15570 15577 15582 15583 15587 15588 15589 15591 (8 flits)
Measured flits: 15570 15577 15582 15583 15587 15588 15589 15591 (8 flits)
Class 0:
Remaining flits: 15570 15577 15582 15583 15587 15588 15589 15591 (8 flits)
Measured flits: 15570 15577 15582 15583 15587 15588 15589 15591 (8 flits)
Class 0:
Remaining flits: 15570 15577 15582 15583 15587 15588 15589 15591 (8 flits)
Measured flits: 15570 15577 15582 15583 15587 15588 15589 15591 (8 flits)
Class 0:
Remaining flits: 15570 15577 15582 15583 15587 15588 15589 15591 (8 flits)
Measured flits: 15570 15577 15582 15583 15587 15588 15589 15591 (8 flits)
Class 0:
Remaining flits: 15570 15577 15582 15583 15587 15588 15589 15591 (8 flits)
Measured flits: 15570 15577 15582 15583 15587 15588 15589 15591 (8 flits)
Class 0:
Remaining flits: 15570 15577 15582 15583 15587 15588 15589 15591 (8 flits)
Measured flits: 15570 15577 15582 15583 15587 15588 15589 15591 (8 flits)
Class 0:
Remaining flits: 15570 15577 15582 15583 15587 15588 15589 15591 (8 flits)
Measured flits: 15570 15577 15582 15583 15587 15588 15589 15591 (8 flits)
Class 0:
Remaining flits: 15570 15577 15582 15583 15587 15588 15589 15591 (8 flits)
Measured flits: 15570 15577 15582 15583 15587 15588 15589 15591 (8 flits)
Class 0:
Remaining flits: 15570 15577 15582 15583 15587 15588 15589 15591 (8 flits)
Measured flits: 15570 15577 15582 15583 15587 15588 15589 15591 (8 flits)
Class 0:
Remaining flits: 15570 15577 15582 15583 15587 15588 15589 15591 (8 flits)
Measured flits: 15570 15577 15582 15583 15587 15588 15589 15591 (8 flits)
Class 0:
Remaining flits: 15570 15577 15582 15583 15587 15588 15589 15591 (8 flits)
Measured flits: 15570 15577 15582 15583 15587 15588 15589 15591 (8 flits)
Class 0:
Remaining flits: 15570 15577 15582 15583 15587 15588 15589 15591 (8 flits)
Measured flits: 15570 15577 15582 15583 15587 15588 15589 15591 (8 flits)
Class 0:
Remaining flits: 15570 15577 15582 15583 15587 15588 15589 15591 (8 flits)
Measured flits: 15570 15577 15582 15583 15587 15588 15589 15591 (8 flits)
Class 0:
Remaining flits: 15570 15577 15582 15583 15587 15588 15589 15591 (8 flits)
Measured flits: 15570 15577 15582 15583 15587 15588 15589 15591 (8 flits)
Class 0:
Remaining flits: 15570 15577 15582 15583 15587 15588 15589 15591 (8 flits)
Measured flits: 15570 15577 15582 15583 15587 15588 15589 15591 (8 flits)
Class 0:
Remaining flits: 15570 15577 15582 15583 15587 15588 15589 15591 (8 flits)
Measured flits: 15570 15577 15582 15583 15587 15588 15589 15591 (8 flits)
Class 0:
Remaining flits: 15570 15577 15582 15583 15587 15588 15589 15591 (8 flits)
Measured flits: 15570 15577 15582 15583 15587 15588 15589 15591 (8 flits)
Class 0:
Remaining flits: 15570 15577 15582 15583 15587 15588 15589 15591 (8 flits)
Measured flits: 15570 15577 15582 15583 15587 15588 15589 15591 (8 flits)
Class 0:
Remaining flits: 15570 15577 15582 15583 15587 15588 15589 15591 (8 flits)
Measured flits: 15570 15577 15582 15583 15587 15588 15589 15591 (8 flits)
Class 0:
Remaining flits: 15570 15577 15582 15583 15587 15588 15589 15591 (8 flits)
Measured flits: 15570 15577 15582 15583 15587 15588 15589 15591 (8 flits)
Class 0:
Remaining flits: 15570 15577 15582 15583 15587 15588 15589 15591 (8 flits)
Measured flits: 15570 15577 15582 15583 15587 15588 15589 15591 (8 flits)
Class 0:
Remaining flits: 15570 15577 15582 15583 15587 15588 15589 15591 (8 flits)
Measured flits: 15570 15577 15582 15583 15587 15588 15589 15591 (8 flits)
Class 0:
Remaining flits: 15570 15577 15582 15583 15587 15588 15589 15591 (8 flits)
Measured flits: 15570 15577 15582 15583 15587 15588 15589 15591 (8 flits)
Class 0:
Remaining flits: 15570 15577 15582 15583 15587 15588 15589 15591 (8 flits)
Measured flits: 15570 15577 15582 15583 15587 15588 15589 15591 (8 flits)
Class 0:
Remaining flits: 15570 15577 15582 15583 15587 15588 15589 15591 (8 flits)
Measured flits: 15570 15577 15582 15583 15587 15588 15589 15591 (8 flits)
Class 0:
Remaining flits: 15570 15577 15582 15583 15587 15588 15589 15591 (8 flits)
Measured flits: 15570 15577 15582 15583 15587 15588 15589 15591 (8 flits)
Class 0:
Remaining flits: 15570 15577 15582 15583 15587 15588 15589 15591 (8 flits)
Measured flits: 15570 15577 15582 15583 15587 15588 15589 15591 (8 flits)
Class 0:
Remaining flits: 15570 15577 15582 15583 15587 15588 15589 15591 (8 flits)
Measured flits: 15570 15577 15582 15583 15587 15588 15589 15591 (8 flits)
Class 0:
Remaining flits: 15570 15577 15582 15583 15587 15588 15589 15591 (8 flits)
Measured flits: 15570 15577 15582 15583 15587 15588 15589 15591 (8 flits)
Class 0:
Remaining flits: 15570 15577 15582 15583 15587 15588 15589 15591 (8 flits)
Measured flits: 15570 15577 15582 15583 15587 15588 15589 15591 (8 flits)
Class 0:
Remaining flits: 15570 15577 15582 15583 15587 15588 15589 15591 (8 flits)
Measured flits: 15570 15577 15582 15583 15587 15588 15589 15591 (8 flits)
Class 0:
Remaining flits: 15570 15577 15582 15583 15587 15588 15589 15591 (8 flits)
Measured flits: 15570 15577 15582 15583 15587 15588 15589 15591 (8 flits)
Class 0:
Remaining flits: 15570 15577 15582 15583 15587 15588 15589 15591 (8 flits)
Measured flits: 15570 15577 15582 15583 15587 15588 15589 15591 (8 flits)
Class 0:
Remaining flits: 15570 15577 15582 15583 15587 15588 15589 15591 (8 flits)
Measured flits: 15570 15577 15582 15583 15587 15588 15589 15591 (8 flits)
Class 0:
Remaining flits: 15570 15577 15582 15583 15587 15588 15589 15591 (8 flits)
Measured flits: 15570 15577 15582 15583 15587 15588 15589 15591 (8 flits)
Class 0:
Remaining flits: 15570 15577 15582 15583 15587 15588 15589 15591 (8 flits)
Measured flits: 15570 15577 15582 15583 15587 15588 15589 15591 (8 flits)
Class 0:
Remaining flits: 15570 15577 15582 15583 15587 15588 15589 15591 (8 flits)
Measured flits: 15570 15577 15582 15583 15587 15588 15589 15591 (8 flits)
Class 0:
Remaining flits: 15570 15577 15582 15583 15587 15588 15589 15591 (8 flits)
Measured flits: 15570 15577 15582 15583 15587 15588 15589 15591 (8 flits)
Class 0:
Remaining flits: 15570 15577 15582 15583 15587 15588 15589 15591 (8 flits)
Measured flits: 15570 15577 15582 15583 15587 15588 15589 15591 (8 flits)
Class 0:
Remaining flits: 15570 15577 15582 15583 15587 15588 15589 15591 (8 flits)
Measured flits: 15570 15577 15582 15583 15587 15588 15589 15591 (8 flits)
Class 0:
Remaining flits: 15570 15577 15582 15583 15587 15588 15589 15591 (8 flits)
Measured flits: 15570 15577 15582 15583 15587 15588 15589 15591 (8 flits)
Class 0:
Remaining flits: 15570 15577 15582 15583 15587 15588 15589 15591 (8 flits)
Measured flits: 15570 15577 15582 15583 15587 15588 15589 15591 (8 flits)
Class 0:
Remaining flits: 15570 15577 15582 15583 15587 15588 15589 15591 (8 flits)
Measured flits: 15570 15577 15582 15583 15587 15588 15589 15591 (8 flits)
Class 0:
Remaining flits: 15570 15577 15582 15583 15587 15588 15589 15591 (8 flits)
Measured flits: 15570 15577 15582 15583 15587 15588 15589 15591 (8 flits)
Class 0:
Remaining flits: 15570 15577 15582 15583 15587 15588 15589 15591 (8 flits)
Measured flits: 15570 15577 15582 15583 15587 15588 15589 15591 (8 flits)
Class 0:
Remaining flits: 15570 15577 15582 15583 15587 15588 15589 15591 (8 flits)
Measured flits: 15570 15577 15582 15583 15587 15588 15589 15591 (8 flits)
Class 0:
Remaining flits: 15570 15577 15582 15583 15587 15588 15589 15591 (8 flits)
Measured flits: 15570 15577 15582 15583 15587 15588 15589 15591 (8 flits)
Class 0:
Remaining flits: 15570 15577 15582 15583 15587 15588 15589 15591 (8 flits)
Measured flits: 15570 15577 15582 15583 15587 15588 15589 15591 (8 flits)
Class 0:
Remaining flits: 15570 15577 15582 15583 15587 15588 15589 15591 (8 flits)
Measured flits: 15570 15577 15582 15583 15587 15588 15589 15591 (8 flits)
Class 0:
Remaining flits: 15570 15577 15582 15583 15587 15588 15589 15591 (8 flits)
Measured flits: 15570 15577 15582 15583 15587 15588 15589 15591 (8 flits)
Class 0:
Remaining flits: 15570 15577 15582 15583 15587 15588 15589 15591 (8 flits)
Measured flits: 15570 15577 15582 15583 15587 15588 15589 15591 (8 flits)
Class 0:
Remaining flits: 15570 15577 15582 15583 15587 15588 15589 15591 (8 flits)
Measured flits: 15570 15577 15582 15583 15587 15588 15589 15591 (8 flits)
Class 0:
Remaining flits: 15570 15577 15582 15583 15587 15588 15589 15591 (8 flits)
Measured flits: 15570 15577 15582 15583 15587 15588 15589 15591 (8 flits)
Class 0:
Remaining flits: 15570 15577 15582 15583 15587 15588 15589 15591 (8 flits)
Measured flits: 15570 15577 15582 15583 15587 15588 15589 15591 (8 flits)
Class 0:
Remaining flits: 15570 15577 15582 15583 15587 15588 15589 15591 (8 flits)
Measured flits: 15570 15577 15582 15583 15587 15588 15589 15591 (8 flits)
Class 0:
Remaining flits: 15570 15577 15582 15583 15587 15588 15589 15591 (8 flits)
Measured flits: 15570 15577 15582 15583 15587 15588 15589 15591 (8 flits)
Time taken is 7000 cycles
====== Traffic class 0 ======

Total number of flits generated = 15592, changed lanes = 15437
Overall minimum packet latency = 1911 (1 samples)
Overall average packet latency = 3045.76 (1 samples)
Overall maximum packet latency = 4206 (1 samples)
Overall minimum network latency = 88 (1 samples)
Overall average network latency = 189.254 (1 samples)
Overall maximum network latency = 636 (1 samples)
Overall minimum flit latency = 88 (1 samples)
Overall average flit latency = 190.397 (1 samples)
Overall maximum flit latency = 636 (1 samples)
Overall minimum fragmentation = 0 (1 samples)
Overall average fragmentation = 0 (1 samples)
Overall maximum fragmentation = 0 (1 samples)
Overall minimum injected packet rate = 0.149667 (1 samples)
Overall average injected packet rate = 0.15825 (1 samples)
Overall maximum injected packet rate = 0.165 (1 samples)
Overall minimum accepted packet rate = 0.142667 (1 samples)
Overall average accepted packet rate = 0.158062 (1 samples)
Overall maximum accepted packet rate = 0.172667 (1 samples)
Overall minimum injected flit rate = 0.149667 (1 samples)
Overall average injected flit rate = 0.15825 (1 samples)
Overall maximum injected flit rate = 0.165 (1 samples)
Overall minimum accepted flit rate = 0.142667 (1 samples)
Overall average accepted flit rate = 0.158062 (1 samples)
Overall maximum accepted flit rate = 0.172667 (1 samples)
Overall average injected packet size = 1 (1 samples)
Overall average accepted packet size = 1 (1 samples)
Overall average hops = 3.49209 (1 samples)
Overall throughput of the network (flits/cycle) = 5.19467
Overall throughput of the network (packets/cycle) = 5.19467
Total run time 7084.63
