make: Nothing to be done for 'all'.
Master: Running timer....
Master: Running SRC....
BEGIN Configuration File: ./examples/bitrev
// Topology

topology = mesh;
k = 4;
n = 2;

// Routing
routing_function = dor;

// Flow control
num_vcs     = 4;
vc_buf_size = 4;
wait_for_tail_credit = 0;

// Router architecture
vc_allocator = islip;
sw_allocator = islip;
alloc_iters  = 1;

credit_delay   = 1;
routing_delay  = 1;
vc_alloc_delay = 1;
sw_alloc_delay = 1;

input_speedup     = 1;
output_speedup    = 1;
internal_speedup  = 1.0;

vc_busy_when_full = 0;

// Traffic
traffic = uniform;
packet_size = 1;

// Simulation
sim_type = throughput;

injection_rate = 0.13;

END Configuration File: ./examples/bitrev
===== Time: 1000 =====
Class 0:
Minimum packet latency = 8
Average packet latency = 54.5274
Maximum packet latency = 149
Minimum network latency = 9
Average network latency = 55.5274
Maximum network latency = 150
Slowest packet = 793
Minimum flit latency = 9
Average flit latency = 55.5274
Maximum flit latency = 150
Slowest flit = 793
Minimum fragmentation = 0
Average fragmentation = 0
Maximum fragmentation = 0
Minimum injected packet rate = 0.109 (at node 9)
Average injected packet rate = 0.126812
Maximum injected packet rate = 0.136 (at node 2)
Minimum accepted packet rate = 0.103 (at node 14)
Average accepted packet rate = 0.119688
Maximum accepted packet rate = 0.132 (at node 2)
Minimum injected flit rate = 0.109 (at node 9)
Average injected flit rate = 0.126812
Maximum injected flit rate = 0.136 (at node 2)
Minimum accepted flit rate = 0.103 (at node 14)
Average accepted flit rate = 0.119688
Maximum accepted flit rate = 0.132 (at node 2)
Total number of injected packets = 2029
Total number of injected flits = 2029
Average injected packet length = 1
Total number of accepted packets = 1915
Total number of accepted flits = 1915
Average accepted packet length = 1
Total in-flight flits = 114 (0 measured)
===== Time: 2000 =====
Class 0:
Minimum packet latency = 8
Average packet latency = 56.0703
Maximum packet latency = 186
Minimum network latency = 9
Average network latency = 57.0703
Maximum network latency = 187
Slowest packet = 3082
Minimum flit latency = 9
Average flit latency = 57.0703
Maximum flit latency = 187
Slowest flit = 3082
Minimum fragmentation = 0
Average fragmentation = 0
Maximum fragmentation = 0
Minimum injected packet rate = 0.1125 (at node 7)
Average injected packet rate = 0.125594
Maximum injected packet rate = 0.132 (at node 13)
Minimum accepted packet rate = 0.1155 (at node 4)
Average accepted packet rate = 0.122688
Maximum accepted packet rate = 0.136 (at node 8)
Minimum injected flit rate = 0.1125 (at node 7)
Average injected flit rate = 0.125594
Maximum injected flit rate = 0.132 (at node 13)
Minimum accepted flit rate = 0.1155 (at node 4)
Average accepted flit rate = 0.122688
Maximum accepted flit rate = 0.136 (at node 8)
Total number of injected packets = 4019
Total number of injected flits = 4019
Average injected packet length = 1
Total number of accepted packets = 3926
Total number of accepted flits = 3926
Average accepted packet length = 1
Total in-flight flits = 93 (0 measured)
===== Time: 3000 =====
Class 0:
Minimum packet latency = 8
Average packet latency = 56.4557
Maximum packet latency = 154
Minimum network latency = 9
Average network latency = 57.4557
Maximum network latency = 155
Slowest packet = 4761
Minimum flit latency = 9
Average flit latency = 57.4557
Maximum flit latency = 155
Slowest flit = 4761
Minimum fragmentation = 0
Average fragmentation = 0
Maximum fragmentation = 0
Minimum injected packet rate = 0.117 (at node 0)
Average injected packet rate = 0.131562
Maximum injected packet rate = 0.145 (at node 6)
Minimum accepted packet rate = 0.11 (at node 4)
Average accepted packet rate = 0.127688
Maximum accepted packet rate = 0.147 (at node 7)
Minimum injected flit rate = 0.117 (at node 0)
Average injected flit rate = 0.131562
Maximum injected flit rate = 0.145 (at node 6)
Minimum accepted flit rate = 0.11 (at node 4)
Average accepted flit rate = 0.127688
Maximum accepted flit rate = 0.147 (at node 7)
Total number of injected packets = 2105
Total number of injected flits = 2105
Average injected packet length = 1
Total number of accepted packets = 2043
Total number of accepted flits = 2043
Average accepted packet length = 1
Total in-flight flits = 155 (0 measured)
===== Time: 4000 =====
Class 0:
Minimum packet latency = 8
Average packet latency = 60.6844
Maximum packet latency = 196
Minimum network latency = 9
Average network latency = 61.6844
Maximum network latency = 197
Slowest packet = 6657
Minimum flit latency = 9
Average flit latency = 62.7731
Maximum flit latency = 197
Slowest flit = 6657
Minimum fragmentation = 0
Average fragmentation = 0
Maximum fragmentation = 0
Minimum injected packet rate = 0.099 (at node 0)
Average injected packet rate = 0.130062
Maximum injected packet rate = 0.165 (at node 15)
Minimum accepted packet rate = 0.117 (at node 4)
Average accepted packet rate = 0.131688
Maximum accepted packet rate = 0.149 (at node 6)
Minimum injected flit rate = 0.099 (at node 0)
Average injected flit rate = 0.130062
Maximum injected flit rate = 0.165 (at node 15)
Minimum accepted flit rate = 0.117 (at node 4)
Average accepted flit rate = 0.131688
Maximum accepted flit rate = 0.149 (at node 6)
Total number of injected packets = 2081
Total number of injected flits = 2081
Average injected packet length = 1
Total number of accepted packets = 2107
Total number of accepted flits = 2107
Average accepted packet length = 1
Total in-flight flits = 129 (129 measured)
===== Time: 5000 =====
Class 0:
Minimum packet latency = 8
Average packet latency = 58.9138
Maximum packet latency = 220
Minimum network latency = 9
Average network latency = 59.9138
Maximum network latency = 221
Slowest packet = 8183
Minimum flit latency = 9
Average flit latency = 60.5301
Maximum flit latency = 221
Slowest flit = 8183
Minimum fragmentation = 0
Average fragmentation = 0
Maximum fragmentation = 0
Minimum injected packet rate = 0.1125 (at node 14)
Average injected packet rate = 0.128906
Maximum injected packet rate = 0.151 (at node 15)
Minimum accepted packet rate = 0.112 (at node 4)
Average accepted packet rate = 0.130219
Maximum accepted packet rate = 0.14 (at node 7)
Minimum injected flit rate = 0.1125 (at node 14)
Average injected flit rate = 0.128906
Maximum injected flit rate = 0.151 (at node 15)
Minimum accepted flit rate = 0.112 (at node 4)
Average accepted flit rate = 0.130219
Maximum accepted flit rate = 0.14 (at node 7)
Total number of injected packets = 4125
Total number of injected flits = 4125
Average injected packet length = 1
Total number of accepted packets = 4167
Total number of accepted flits = 4167
Average accepted packet length = 1
Total in-flight flits = 113 (113 measured)
===== Time: 6000 =====
Class 0:
Minimum packet latency = 8
Average packet latency = 58.5218
Maximum packet latency = 220
Minimum network latency = 9
Average network latency = 59.5218
Maximum network latency = 221
Slowest packet = 8183
Minimum flit latency = 9
Average flit latency = 59.942
Maximum flit latency = 221
Slowest flit = 8183
Minimum fragmentation = 0
Average fragmentation = 0
Maximum fragmentation = 0
Minimum injected packet rate = 0.119333 (at node 14)
Average injected packet rate = 0.129646
Maximum injected packet rate = 0.147 (at node 15)
Minimum accepted packet rate = 0.113667 (at node 4)
Average accepted packet rate = 0.130354
Maximum accepted packet rate = 0.140667 (at node 9)
Minimum injected flit rate = 0.119333 (at node 14)
Average injected flit rate = 0.129646
Maximum injected flit rate = 0.147 (at node 15)
Minimum accepted flit rate = 0.113667 (at node 4)
Average accepted flit rate = 0.130354
Maximum accepted flit rate = 0.140667 (at node 9)
Total number of injected packets = 6223
Total number of injected flits = 6223
Average injected packet length = 1
Total number of accepted packets = 6257
Total number of accepted flits = 6257
Average accepted packet length = 1
Total in-flight flits = 121 (121 measured)
Draining remaining packets ...
Class 0:
Remaining flits: 12038 12067 12116 12128 12172 12179 12183 12185 12186 12188 [...] (109 flits)
Measured flits: 12038 12067 12116 12128 12172 12179 12183 12185 12186 12188 [...] (109 flits)
Class 0:
Remaining flits: 12116 12128 12179 12185 12197 12199 12208 12212 12216 12218 [...] (82 flits)
Measured flits: 12116 12128 12179 12185 12197 12199 12208 12212 12216 12218 [...] (82 flits)
Class 0:
Remaining flits: 12116 12128 12179 12185 12208 12212 12216 12219 12226 12236 [...] (67 flits)
Measured flits: 12116 12128 12179 12185 12208 12212 12216 12219 12226 12236 [...] (67 flits)
Class 0:
Remaining flits: 12116 12179 12185 12212 12219 12226 12236 12240 12245 12254 [...] (51 flits)
Measured flits: 12116 12179 12185 12212 12219 12226 12236 12240 12245 12254 [...] (51 flits)
Class 0:
Remaining flits: 12179 12185 12212 12226 12236 12245 12254 12257 12287 12290 [...] (35 flits)
Measured flits: 12179 12185 12212 12226 12236 12245 12254 12257 12287 12290 [...] (35 flits)
Class 0:
Remaining flits: 12179 12185 12212 12226 12254 12257 12287 12310 12313 12314 [...] (27 flits)
Measured flits: 12179 12185 12212 12226 12254 12257 12287 12310 12313 12314 [...] (27 flits)
Class 0:
Remaining flits: 12179 12185 12212 12310 12313 12314 12317 12319 12320 12328 [...] (18 flits)
Measured flits: 12179 12185 12212 12310 12313 12314 12317 12319 12320 12328 [...] (18 flits)
Class 0:
Remaining flits: 12179 12185 12212 12310 12313 12314 12328 12329 12338 12340 [...] (11 flits)
Measured flits: 12179 12185 12212 12310 12313 12314 12328 12329 12338 12340 [...] (11 flits)
Class 0:
Remaining flits: 12179 12185 12212 12310 12313 12314 12328 12338 12340 12342 (10 flits)
Measured flits: 12179 12185 12212 12310 12313 12314 12328 12338 12340 12342 (10 flits)
Class 0:
Remaining flits: 12179 12185 12212 12310 12313 12314 12328 12338 12340 12342 (10 flits)
Measured flits: 12179 12185 12212 12310 12313 12314 12328 12338 12340 12342 (10 flits)
Class 0:
Remaining flits: 12179 12185 12212 12310 12313 12314 12328 12338 12340 12342 (10 flits)
Measured flits: 12179 12185 12212 12310 12313 12314 12328 12338 12340 12342 (10 flits)
Class 0:
Remaining flits: 12179 12185 12212 12310 12313 12314 12328 12338 12340 12342 (10 flits)
Measured flits: 12179 12185 12212 12310 12313 12314 12328 12338 12340 12342 (10 flits)
Class 0:
Remaining flits: 12179 12185 12212 12310 12313 12314 12328 12338 12340 12342 (10 flits)
Measured flits: 12179 12185 12212 12310 12313 12314 12328 12338 12340 12342 (10 flits)
Class 0:
Remaining flits: 12179 12185 12212 12310 12313 12314 12328 12338 12340 12342 (10 flits)
Measured flits: 12179 12185 12212 12310 12313 12314 12328 12338 12340 12342 (10 flits)
Class 0:
Remaining flits: 12179 12185 12212 12310 12313 12314 12328 12338 12340 12342 (10 flits)
Measured flits: 12179 12185 12212 12310 12313 12314 12328 12338 12340 12342 (10 flits)
Class 0:
Remaining flits: 12179 12185 12212 12310 12313 12314 12328 12338 12340 12342 (10 flits)
Measured flits: 12179 12185 12212 12310 12313 12314 12328 12338 12340 12342 (10 flits)
Class 0:
Remaining flits: 12179 12185 12212 12310 12313 12314 12328 12338 12340 12342 (10 flits)
Measured flits: 12179 12185 12212 12310 12313 12314 12328 12338 12340 12342 (10 flits)
Class 0:
Remaining flits: 12179 12185 12212 12310 12313 12314 12328 12338 12340 12342 (10 flits)
Measured flits: 12179 12185 12212 12310 12313 12314 12328 12338 12340 12342 (10 flits)
Class 0:
Remaining flits: 12179 12185 12212 12310 12313 12314 12328 12338 12340 12342 (10 flits)
Measured flits: 12179 12185 12212 12310 12313 12314 12328 12338 12340 12342 (10 flits)
Class 0:
Remaining flits: 12179 12185 12212 12310 12313 12314 12328 12338 12340 12342 (10 flits)
Measured flits: 12179 12185 12212 12310 12313 12314 12328 12338 12340 12342 (10 flits)
Class 0:
Remaining flits: 12179 12185 12212 12310 12313 12314 12328 12338 12340 12342 (10 flits)
Measured flits: 12179 12185 12212 12310 12313 12314 12328 12338 12340 12342 (10 flits)
Class 0:
Remaining flits: 12179 12185 12212 12310 12313 12314 12328 12338 12340 12342 (10 flits)
Measured flits: 12179 12185 12212 12310 12313 12314 12328 12338 12340 12342 (10 flits)
Class 0:
Remaining flits: 12179 12185 12212 12310 12313 12314 12328 12338 12340 12342 (10 flits)
Measured flits: 12179 12185 12212 12310 12313 12314 12328 12338 12340 12342 (10 flits)
Class 0:
Remaining flits: 12179 12185 12212 12310 12313 12314 12328 12338 12340 12342 (10 flits)
Measured flits: 12179 12185 12212 12310 12313 12314 12328 12338 12340 12342 (10 flits)
Class 0:
Remaining flits: 12179 12185 12212 12310 12313 12314 12328 12338 12340 12342 (10 flits)
Measured flits: 12179 12185 12212 12310 12313 12314 12328 12338 12340 12342 (10 flits)
Class 0:
Remaining flits: 12179 12185 12212 12310 12313 12314 12328 12338 12340 12342 (10 flits)
Measured flits: 12179 12185 12212 12310 12313 12314 12328 12338 12340 12342 (10 flits)
Class 0:
Remaining flits: 12179 12185 12212 12310 12313 12314 12328 12338 12340 12342 (10 flits)
Measured flits: 12179 12185 12212 12310 12313 12314 12328 12338 12340 12342 (10 flits)
Class 0:
Remaining flits: 12179 12185 12212 12310 12313 12314 12328 12338 12340 12342 (10 flits)
Measured flits: 12179 12185 12212 12310 12313 12314 12328 12338 12340 12342 (10 flits)
Class 0:
Remaining flits: 12179 12185 12212 12310 12313 12314 12328 12338 12340 12342 (10 flits)
Measured flits: 12179 12185 12212 12310 12313 12314 12328 12338 12340 12342 (10 flits)
Class 0:
Remaining flits: 12179 12185 12212 12310 12313 12314 12328 12338 12340 12342 (10 flits)
Measured flits: 12179 12185 12212 12310 12313 12314 12328 12338 12340 12342 (10 flits)
Class 0:
Remaining flits: 12179 12185 12212 12310 12313 12314 12328 12338 12340 12342 (10 flits)
Measured flits: 12179 12185 12212 12310 12313 12314 12328 12338 12340 12342 (10 flits)
Class 0:
Remaining flits: 12179 12185 12212 12310 12313 12314 12328 12338 12340 12342 (10 flits)
Measured flits: 12179 12185 12212 12310 12313 12314 12328 12338 12340 12342 (10 flits)
Class 0:
Remaining flits: 12179 12185 12212 12310 12313 12314 12328 12338 12340 12342 (10 flits)
Measured flits: 12179 12185 12212 12310 12313 12314 12328 12338 12340 12342 (10 flits)
Class 0:
Remaining flits: 12179 12185 12212 12310 12313 12314 12328 12338 12340 12342 (10 flits)
Measured flits: 12179 12185 12212 12310 12313 12314 12328 12338 12340 12342 (10 flits)
Class 0:
Remaining flits: 12179 12185 12212 12310 12313 12314 12328 12338 12340 12342 (10 flits)
Measured flits: 12179 12185 12212 12310 12313 12314 12328 12338 12340 12342 (10 flits)
Class 0:
Remaining flits: 12179 12185 12212 12310 12313 12314 12328 12338 12340 12342 (10 flits)
Measured flits: 12179 12185 12212 12310 12313 12314 12328 12338 12340 12342 (10 flits)
Class 0:
Remaining flits: 12179 12185 12212 12310 12313 12314 12328 12338 12340 12342 (10 flits)
Measured flits: 12179 12185 12212 12310 12313 12314 12328 12338 12340 12342 (10 flits)
Class 0:
Remaining flits: 12179 12185 12212 12310 12313 12314 12328 12338 12340 12342 (10 flits)
Measured flits: 12179 12185 12212 12310 12313 12314 12328 12338 12340 12342 (10 flits)
Class 0:
Remaining flits: 12179 12185 12212 12310 12313 12314 12328 12338 12340 12342 (10 flits)
Measured flits: 12179 12185 12212 12310 12313 12314 12328 12338 12340 12342 (10 flits)
Class 0:
Remaining flits: 12179 12185 12212 12310 12313 12314 12328 12338 12340 12342 (10 flits)
Measured flits: 12179 12185 12212 12310 12313 12314 12328 12338 12340 12342 (10 flits)
Class 0:
Remaining flits: 12179 12185 12212 12310 12313 12314 12328 12338 12340 12342 (10 flits)
Measured flits: 12179 12185 12212 12310 12313 12314 12328 12338 12340 12342 (10 flits)
Class 0:
Remaining flits: 12179 12185 12212 12310 12313 12314 12328 12338 12340 12342 (10 flits)
Measured flits: 12179 12185 12212 12310 12313 12314 12328 12338 12340 12342 (10 flits)
Class 0:
Remaining flits: 12179 12185 12212 12310 12313 12314 12328 12338 12340 12342 (10 flits)
Measured flits: 12179 12185 12212 12310 12313 12314 12328 12338 12340 12342 (10 flits)
Class 0:
Remaining flits: 12179 12185 12212 12310 12313 12314 12328 12338 12340 12342 (10 flits)
Measured flits: 12179 12185 12212 12310 12313 12314 12328 12338 12340 12342 (10 flits)
Class 0:
Remaining flits: 12179 12185 12212 12310 12313 12314 12328 12338 12340 12342 (10 flits)
Measured flits: 12179 12185 12212 12310 12313 12314 12328 12338 12340 12342 (10 flits)
Class 0:
Remaining flits: 12179 12185 12212 12310 12313 12314 12328 12338 12340 12342 (10 flits)
Measured flits: 12179 12185 12212 12310 12313 12314 12328 12338 12340 12342 (10 flits)
Class 0:
Remaining flits: 12179 12185 12212 12310 12313 12314 12328 12338 12340 12342 (10 flits)
Measured flits: 12179 12185 12212 12310 12313 12314 12328 12338 12340 12342 (10 flits)
Class 0:
Remaining flits: 12179 12185 12212 12310 12313 12314 12328 12338 12340 12342 (10 flits)
Measured flits: 12179 12185 12212 12310 12313 12314 12328 12338 12340 12342 (10 flits)
Class 0:
Remaining flits: 12179 12185 12212 12310 12313 12314 12328 12338 12340 12342 (10 flits)
Measured flits: 12179 12185 12212 12310 12313 12314 12328 12338 12340 12342 (10 flits)
Class 0:
Remaining flits: 12179 12185 12212 12310 12313 12314 12328 12338 12340 12342 (10 flits)
Measured flits: 12179 12185 12212 12310 12313 12314 12328 12338 12340 12342 (10 flits)
Class 0:
Remaining flits: 12179 12185 12212 12310 12313 12314 12328 12338 12340 12342 (10 flits)
Measured flits: 12179 12185 12212 12310 12313 12314 12328 12338 12340 12342 (10 flits)
Class 0:
Remaining flits: 12179 12185 12212 12310 12313 12314 12328 12338 12340 12342 (10 flits)
Measured flits: 12179 12185 12212 12310 12313 12314 12328 12338 12340 12342 (10 flits)
Class 0:
Remaining flits: 12179 12185 12212 12310 12313 12314 12328 12338 12340 12342 (10 flits)
Measured flits: 12179 12185 12212 12310 12313 12314 12328 12338 12340 12342 (10 flits)
Class 0:
Remaining flits: 12179 12185 12212 12310 12313 12314 12328 12338 12340 12342 (10 flits)
Measured flits: 12179 12185 12212 12310 12313 12314 12328 12338 12340 12342 (10 flits)
Class 0:
Remaining flits: 12179 12185 12212 12310 12313 12314 12328 12338 12340 12342 (10 flits)
Measured flits: 12179 12185 12212 12310 12313 12314 12328 12338 12340 12342 (10 flits)
Class 0:
Remaining flits: 12179 12185 12212 12310 12313 12314 12328 12338 12340 12342 (10 flits)
Measured flits: 12179 12185 12212 12310 12313 12314 12328 12338 12340 12342 (10 flits)
Class 0:
Remaining flits: 12179 12185 12212 12310 12313 12314 12328 12338 12340 12342 (10 flits)
Measured flits: 12179 12185 12212 12310 12313 12314 12328 12338 12340 12342 (10 flits)
Class 0:
Remaining flits: 12179 12185 12212 12310 12313 12314 12328 12338 12340 12342 (10 flits)
Measured flits: 12179 12185 12212 12310 12313 12314 12328 12338 12340 12342 (10 flits)
Class 0:
Remaining flits: 12179 12185 12212 12310 12313 12314 12328 12338 12340 12342 (10 flits)
Measured flits: 12179 12185 12212 12310 12313 12314 12328 12338 12340 12342 (10 flits)
Class 0:
Remaining flits: 12179 12185 12212 12310 12313 12314 12328 12338 12340 12342 (10 flits)
Measured flits: 12179 12185 12212 12310 12313 12314 12328 12338 12340 12342 (10 flits)
Class 0:
Remaining flits: 12179 12185 12212 12310 12313 12314 12328 12338 12340 12342 (10 flits)
Measured flits: 12179 12185 12212 12310 12313 12314 12328 12338 12340 12342 (10 flits)
Class 0:
Remaining flits: 12179 12185 12212 12310 12313 12314 12328 12338 12340 12342 (10 flits)
Measured flits: 12179 12185 12212 12310 12313 12314 12328 12338 12340 12342 (10 flits)
Class 0:
Remaining flits: 12179 12185 12212 12310 12313 12314 12328 12338 12340 12342 (10 flits)
Measured flits: 12179 12185 12212 12310 12313 12314 12328 12338 12340 12342 (10 flits)
Class 0:
Remaining flits: 12179 12185 12212 12310 12313 12314 12328 12338 12340 12342 (10 flits)
Measured flits: 12179 12185 12212 12310 12313 12314 12328 12338 12340 12342 (10 flits)
Class 0:
Remaining flits: 12179 12185 12212 12310 12313 12314 12328 12338 12340 12342 (10 flits)
Measured flits: 12179 12185 12212 12310 12313 12314 12328 12338 12340 12342 (10 flits)
Class 0:
Remaining flits: 12179 12185 12212 12310 12313 12314 12328 12338 12340 12342 (10 flits)
Measured flits: 12179 12185 12212 12310 12313 12314 12328 12338 12340 12342 (10 flits)
Class 0:
Remaining flits: 12179 12185 12212 12310 12313 12314 12328 12338 12340 12342 (10 flits)
Measured flits: 12179 12185 12212 12310 12313 12314 12328 12338 12340 12342 (10 flits)
Class 0:
Remaining flits: 12179 12185 12212 12310 12313 12314 12328 12338 12340 12342 (10 flits)
Measured flits: 12179 12185 12212 12310 12313 12314 12328 12338 12340 12342 (10 flits)
Class 0:
Remaining flits: 12179 12185 12212 12310 12313 12314 12328 12338 12340 12342 (10 flits)
Measured flits: 12179 12185 12212 12310 12313 12314 12328 12338 12340 12342 (10 flits)
Class 0:
Remaining flits: 12179 12185 12212 12310 12313 12314 12328 12338 12340 12342 (10 flits)
Measured flits: 12179 12185 12212 12310 12313 12314 12328 12338 12340 12342 (10 flits)
Class 0:
Remaining flits: 12179 12185 12212 12310 12313 12314 12328 12338 12340 12342 (10 flits)
Measured flits: 12179 12185 12212 12310 12313 12314 12328 12338 12340 12342 (10 flits)
Class 0:
Remaining flits: 12179 12185 12212 12310 12313 12314 12328 12338 12340 12342 (10 flits)
Measured flits: 12179 12185 12212 12310 12313 12314 12328 12338 12340 12342 (10 flits)
Class 0:
Remaining flits: 12179 12185 12212 12310 12313 12314 12328 12338 12340 12342 (10 flits)
Measured flits: 12179 12185 12212 12310 12313 12314 12328 12338 12340 12342 (10 flits)
Class 0:
Remaining flits: 12179 12185 12212 12310 12313 12314 12328 12338 12340 12342 (10 flits)
Measured flits: 12179 12185 12212 12310 12313 12314 12328 12338 12340 12342 (10 flits)
Class 0:
Remaining flits: 12179 12185 12212 12310 12313 12314 12328 12338 12340 12342 (10 flits)
Measured flits: 12179 12185 12212 12310 12313 12314 12328 12338 12340 12342 (10 flits)
Class 0:
Remaining flits: 12179 12185 12212 12310 12313 12314 12328 12338 12340 12342 (10 flits)
Measured flits: 12179 12185 12212 12310 12313 12314 12328 12338 12340 12342 (10 flits)
Class 0:
Remaining flits: 12179 12185 12212 12310 12313 12314 12328 12338 12340 12342 (10 flits)
Measured flits: 12179 12185 12212 12310 12313 12314 12328 12338 12340 12342 (10 flits)
Class 0:
Remaining flits: 12179 12185 12212 12310 12313 12314 12328 12338 12340 12342 (10 flits)
Measured flits: 12179 12185 12212 12310 12313 12314 12328 12338 12340 12342 (10 flits)
Class 0:
Remaining flits: 12179 12185 12212 12310 12313 12314 12328 12338 12340 12342 (10 flits)
Measured flits: 12179 12185 12212 12310 12313 12314 12328 12338 12340 12342 (10 flits)
Class 0:
Remaining flits: 12179 12185 12212 12310 12313 12314 12328 12338 12340 12342 (10 flits)
Measured flits: 12179 12185 12212 12310 12313 12314 12328 12338 12340 12342 (10 flits)
Class 0:
Remaining flits: 12179 12185 12212 12310 12313 12314 12328 12338 12340 12342 (10 flits)
Measured flits: 12179 12185 12212 12310 12313 12314 12328 12338 12340 12342 (10 flits)
Class 0:
Remaining flits: 12179 12185 12212 12310 12313 12314 12328 12338 12340 12342 (10 flits)
Measured flits: 12179 12185 12212 12310 12313 12314 12328 12338 12340 12342 (10 flits)
Class 0:
Remaining flits: 12179 12185 12212 12310 12313 12314 12328 12338 12340 12342 (10 flits)
Measured flits: 12179 12185 12212 12310 12313 12314 12328 12338 12340 12342 (10 flits)
Class 0:
Remaining flits: 12179 12185 12212 12310 12313 12314 12328 12338 12340 12342 (10 flits)
Measured flits: 12179 12185 12212 12310 12313 12314 12328 12338 12340 12342 (10 flits)
Class 0:
Remaining flits: 12179 12185 12212 12310 12313 12314 12328 12338 12340 12342 (10 flits)
Measured flits: 12179 12185 12212 12310 12313 12314 12328 12338 12340 12342 (10 flits)
Class 0:
Remaining flits: 12179 12185 12212 12310 12313 12314 12328 12338 12340 12342 (10 flits)
Measured flits: 12179 12185 12212 12310 12313 12314 12328 12338 12340 12342 (10 flits)
Class 0:
Remaining flits: 12179 12185 12212 12310 12313 12314 12328 12338 12340 12342 (10 flits)
Measured flits: 12179 12185 12212 12310 12313 12314 12328 12338 12340 12342 (10 flits)
Class 0:
Remaining flits: 12179 12185 12212 12310 12313 12314 12328 12338 12340 12342 (10 flits)
Measured flits: 12179 12185 12212 12310 12313 12314 12328 12338 12340 12342 (10 flits)
Class 0:
Remaining flits: 12179 12185 12212 12310 12313 12314 12328 12338 12340 12342 (10 flits)
Measured flits: 12179 12185 12212 12310 12313 12314 12328 12338 12340 12342 (10 flits)
Class 0:
Remaining flits: 12179 12185 12212 12310 12313 12314 12328 12338 12340 12342 (10 flits)
Measured flits: 12179 12185 12212 12310 12313 12314 12328 12338 12340 12342 (10 flits)
Class 0:
Remaining flits: 12179 12185 12212 12310 12313 12314 12328 12338 12340 12342 (10 flits)
Measured flits: 12179 12185 12212 12310 12313 12314 12328 12338 12340 12342 (10 flits)
Class 0:
Remaining flits: 12179 12185 12212 12310 12313 12314 12328 12338 12340 12342 (10 flits)
Measured flits: 12179 12185 12212 12310 12313 12314 12328 12338 12340 12342 (10 flits)
Class 0:
Remaining flits: 12179 12185 12212 12310 12313 12314 12328 12338 12340 12342 (10 flits)
Measured flits: 12179 12185 12212 12310 12313 12314 12328 12338 12340 12342 (10 flits)
Class 0:
Remaining flits: 12179 12185 12212 12310 12313 12314 12328 12338 12340 12342 (10 flits)
Measured flits: 12179 12185 12212 12310 12313 12314 12328 12338 12340 12342 (10 flits)
Class 0:
Remaining flits: 12179 12185 12212 12310 12313 12314 12328 12338 12340 12342 (10 flits)
Measured flits: 12179 12185 12212 12310 12313 12314 12328 12338 12340 12342 (10 flits)
Class 0:
Remaining flits: 12179 12185 12212 12310 12313 12314 12328 12338 12340 12342 (10 flits)
Measured flits: 12179 12185 12212 12310 12313 12314 12328 12338 12340 12342 (10 flits)
Class 0:
Remaining flits: 12179 12185 12212 12310 12313 12314 12328 12338 12340 12342 (10 flits)
Measured flits: 12179 12185 12212 12310 12313 12314 12328 12338 12340 12342 (10 flits)
Class 0:
Remaining flits: 12179 12185 12212 12310 12313 12314 12328 12338 12340 12342 (10 flits)
Measured flits: 12179 12185 12212 12310 12313 12314 12328 12338 12340 12342 (10 flits)
Class 0:
Remaining flits: 12179 12185 12212 12310 12313 12314 12328 12338 12340 12342 (10 flits)
Measured flits: 12179 12185 12212 12310 12313 12314 12328 12338 12340 12342 (10 flits)
Class 0:
Remaining flits: 12179 12185 12212 12310 12313 12314 12328 12338 12340 12342 (10 flits)
Measured flits: 12179 12185 12212 12310 12313 12314 12328 12338 12340 12342 (10 flits)
Class 0:
Remaining flits: 12179 12185 12212 12310 12313 12314 12328 12338 12340 12342 (10 flits)
Measured flits: 12179 12185 12212 12310 12313 12314 12328 12338 12340 12342 (10 flits)
Time taken is 7000 cycles
====== Traffic class 0 ======

Total number of flits generated = 12347, changed lanes = 12028
Overall minimum packet latency = 8 (1 samples)
Overall average packet latency = 58.7999 (1 samples)
Overall maximum packet latency = 220 (1 samples)
Overall minimum network latency = 9 (1 samples)
Overall average network latency = 59.7999 (1 samples)
Overall maximum network latency = 221 (1 samples)
Overall minimum flit latency = 9 (1 samples)
Overall average flit latency = 60.206 (1 samples)
Overall maximum flit latency = 221 (1 samples)
Overall minimum fragmentation = 0 (1 samples)
Overall average fragmentation = 0 (1 samples)
Overall maximum fragmentation = 0 (1 samples)
Overall minimum injected packet rate = 0.119333 (1 samples)
Overall average injected packet rate = 0.129646 (1 samples)
Overall maximum injected packet rate = 0.147 (1 samples)
Overall minimum accepted packet rate = 0.113667 (1 samples)
Overall average accepted packet rate = 0.130354 (1 samples)
Overall maximum accepted packet rate = 0.140667 (1 samples)
Overall minimum injected flit rate = 0.119333 (1 samples)
Overall average injected flit rate = 0.129646 (1 samples)
Overall maximum injected flit rate = 0.147 (1 samples)
Overall minimum accepted flit rate = 0.113667 (1 samples)
Overall average accepted flit rate = 0.130354 (1 samples)
Overall maximum accepted flit rate = 0.140667 (1 samples)
Overall average injected packet size = 1 (1 samples)
Overall average accepted packet size = 1 (1 samples)
Overall average hops = 3.51119 (1 samples)
Overall throughput of the network (flits/cycle) = 4.11233
Overall throughput of the network (packets/cycle) = 4.11233
Total run time 72.6814
