make: Nothing to be done for 'all'.
Master: Running timer....
Master: Running SRC....
BEGIN Configuration File: ./examples/bitrev
// Topology

topology = mesh;
k = 4;
n = 2;

// Routing
routing_function = dor;

// Flow control
num_vcs     = 4;
vc_buf_size = 4;
wait_for_tail_credit = 0;

// Router architecture
vc_allocator = islip;
sw_allocator = islip;
alloc_iters  = 1;

credit_delay   = 1;
routing_delay  = 1;
vc_alloc_delay = 1;
sw_alloc_delay = 1;

input_speedup     = 1;
output_speedup    = 1;
internal_speedup  = 1.0;

vc_busy_when_full = 0;

// Traffic
traffic = uniform;
packet_size = 1;

// Simulation
sim_type = throughput;

injection_rate = 0.35;

END Configuration File: ./examples/bitrev
===== Time: 1000 =====
Class 0:
Minimum packet latency = 10
Average packet latency = 298.397
Maximum packet latency = 625
Minimum network latency = 11
Average network latency = 143.267
Maximum network latency = 315
Slowest packet = 300
Minimum flit latency = 11
Average flit latency = 143.267
Maximum flit latency = 315
Slowest flit = 1987
Minimum fragmentation = 0
Average fragmentation = 0
Maximum fragmentation = 0
Minimum injected packet rate = 0.178 (at node 6)
Average injected packet rate = 0.180625
Maximum injected packet rate = 0.182 (at node 4)
Minimum accepted packet rate = 0.139 (at node 14)
Average accepted packet rate = 0.153625
Maximum accepted packet rate = 0.166 (at node 4)
Minimum injected flit rate = 0.178 (at node 6)
Average injected flit rate = 0.180625
Maximum injected flit rate = 0.182 (at node 4)
Minimum accepted flit rate = 0.139 (at node 14)
Average accepted flit rate = 0.153625
Maximum accepted flit rate = 0.166 (at node 4)
Total number of injected packets = 2890
Total number of injected flits = 2890
Average injected packet length = 1
Total number of accepted packets = 2458
Total number of accepted flits = 2458
Average accepted packet length = 1
Total in-flight flits = 446 (0 measured)
===== Time: 2000 =====
Class 0:
Minimum packet latency = 10
Average packet latency = 566.595
Maximum packet latency = 1239
Minimum network latency = 11
Average network latency = 161.8
Maximum network latency = 429
Slowest packet = 300
Minimum flit latency = 11
Average flit latency = 161.8
Maximum flit latency = 429
Slowest flit = 4311
Minimum fragmentation = 0
Average fragmentation = 0
Maximum fragmentation = 0
Minimum injected packet rate = 0.1625 (at node 6)
Average injected packet rate = 0.170625
Maximum injected packet rate = 0.174 (at node 11)
Minimum accepted packet rate = 0.144 (at node 14)
Average accepted packet rate = 0.155938
Maximum accepted packet rate = 0.1655 (at node 8)
Minimum injected flit rate = 0.1625 (at node 6)
Average injected flit rate = 0.170625
Maximum injected flit rate = 0.174 (at node 11)
Minimum accepted flit rate = 0.144 (at node 14)
Average accepted flit rate = 0.155938
Maximum accepted flit rate = 0.1655 (at node 8)
Total number of injected packets = 5460
Total number of injected flits = 5460
Average injected packet length = 1
Total number of accepted packets = 4990
Total number of accepted flits = 4990
Average accepted packet length = 1
Total in-flight flits = 485 (0 measured)
===== Time: 3000 =====
Class 0:
Minimum packet latency = 1011
Average packet latency = 1370.32
Maximum packet latency = 1804
Minimum network latency = 93
Average network latency = 183.234
Maximum network latency = 449
Slowest packet = 5024
Minimum flit latency = 93
Average flit latency = 183.234
Maximum flit latency = 449
Slowest flit = 6579
Minimum fragmentation = 0
Average fragmentation = 0
Maximum fragmentation = 0
Minimum injected packet rate = 0.142 (at node 6)
Average injected packet rate = 0.15825
Maximum injected packet rate = 0.166 (at node 8)
Minimum accepted packet rate = 0.138 (at node 4)
Average accepted packet rate = 0.159062
Maximum accepted packet rate = 0.177 (at node 7)
Minimum injected flit rate = 0.142 (at node 6)
Average injected flit rate = 0.15825
Maximum injected flit rate = 0.166 (at node 8)
Minimum accepted flit rate = 0.138 (at node 4)
Average accepted flit rate = 0.159062
Maximum accepted flit rate = 0.177 (at node 7)
Total number of injected packets = 2532
Total number of injected flits = 2532
Average injected packet length = 1
Total number of accepted packets = 2545
Total number of accepted flits = 2545
Average accepted packet length = 1
Total in-flight flits = 470 (0 measured)
===== Time: 4000 =====
Class 0:
Minimum packet latency = 1606
Average packet latency = 1961.57
Maximum packet latency = 2318
Minimum network latency = 95
Average network latency = 176.654
Maximum network latency = 446
Slowest packet = 8012
Minimum flit latency = 95
Average flit latency = 184.153
Maximum flit latency = 459
Slowest flit = 7686
Minimum fragmentation = 0
Average fragmentation = 0
Maximum fragmentation = 0
Minimum injected packet rate = 0.146 (at node 6)
Average injected packet rate = 0.159625
Maximum injected packet rate = 0.167 (at node 3)
Minimum accepted packet rate = 0.137 (at node 4)
Average accepted packet rate = 0.15825
Maximum accepted packet rate = 0.178 (at node 7)
Minimum injected flit rate = 0.146 (at node 6)
Average injected flit rate = 0.159625
Maximum injected flit rate = 0.167 (at node 3)
Minimum accepted flit rate = 0.137 (at node 4)
Average accepted flit rate = 0.15825
Maximum accepted flit rate = 0.178 (at node 7)
Total number of injected packets = 2554
Total number of injected flits = 2554
Average injected packet length = 1
Total number of accepted packets = 2532
Total number of accepted flits = 2532
Average accepted packet length = 1
Total in-flight flits = 493 (493 measured)
===== Time: 5000 =====
Class 0:
Minimum packet latency = 1606
Average packet latency = 2230.68
Maximum packet latency = 2968
Minimum network latency = 92
Average network latency = 184.405
Maximum network latency = 467
Slowest packet = 8012
Minimum flit latency = 92
Average flit latency = 187.443
Maximum flit latency = 467
Slowest flit = 10412
Minimum fragmentation = 0
Average fragmentation = 0
Maximum fragmentation = 0
Minimum injected packet rate = 0.1475 (at node 13)
Average injected packet rate = 0.158688
Maximum injected packet rate = 0.167 (at node 8)
Minimum accepted packet rate = 0.141 (at node 4)
Average accepted packet rate = 0.157875
Maximum accepted packet rate = 0.1725 (at node 8)
Minimum injected flit rate = 0.1475 (at node 13)
Average injected flit rate = 0.158688
Maximum injected flit rate = 0.167 (at node 8)
Minimum accepted flit rate = 0.141 (at node 4)
Average accepted flit rate = 0.157875
Maximum accepted flit rate = 0.1725 (at node 8)
Total number of injected packets = 5078
Total number of injected flits = 5078
Average injected packet length = 1
Total number of accepted packets = 5052
Total number of accepted flits = 5052
Average accepted packet length = 1
Total in-flight flits = 498 (498 measured)
===== Time: 6000 =====
Class 0:
Minimum packet latency = 1606
Average packet latency = 2504.92
Maximum packet latency = 3506
Minimum network latency = 92
Average network latency = 187.176
Maximum network latency = 467
Slowest packet = 8012
Minimum flit latency = 92
Average flit latency = 189.028
Maximum flit latency = 467
Slowest flit = 10412
Minimum fragmentation = 0
Average fragmentation = 0
Maximum fragmentation = 0
Minimum injected packet rate = 0.150333 (at node 13)
Average injected packet rate = 0.158646
Maximum injected packet rate = 0.166667 (at node 8)
Minimum accepted packet rate = 0.143667 (at node 4)
Average accepted packet rate = 0.157917
Maximum accepted packet rate = 0.170333 (at node 8)
Minimum injected flit rate = 0.150333 (at node 13)
Average injected flit rate = 0.158646
Maximum injected flit rate = 0.166667 (at node 8)
Minimum accepted flit rate = 0.143667 (at node 4)
Average accepted flit rate = 0.157917
Maximum accepted flit rate = 0.170333 (at node 8)
Total number of injected packets = 7615
Total number of injected flits = 7615
Average injected packet length = 1
Total number of accepted packets = 7580
Total number of accepted flits = 7580
Average accepted packet length = 1
Total in-flight flits = 505 (505 measured)
Draining remaining packets ...
Class 0:
Remaining flits: 14711 14719 14768 14770 14803 14832 14833 14842 14860 14864 [...] (478 flits)
Measured flits: 14711 14719 14768 14770 14803 14832 14833 14842 14860 14864 [...] (478 flits)
Class 0:
Remaining flits: 14711 14719 14768 14770 14803 14833 14842 14860 14864 14894 [...] (451 flits)
Measured flits: 14711 14719 14768 14770 14803 14833 14842 14860 14864 14894 [...] (451 flits)
Class 0:
Remaining flits: 14711 14719 14768 14770 14803 14833 14842 14860 14864 14894 [...] (420 flits)
Measured flits: 14711 14719 14768 14770 14803 14833 14842 14860 14864 14894 [...] (420 flits)
Class 0:
Remaining flits: 14711 14719 14768 14770 14803 14833 14842 14860 14864 14895 [...] (394 flits)
Measured flits: 14711 14719 14768 14770 14803 14833 14842 14860 14864 14895 [...] (394 flits)
Class 0:
Remaining flits: 14711 14719 14768 14770 14803 14833 14842 14860 14864 14895 [...] (374 flits)
Measured flits: 14711 14719 14768 14770 14803 14833 14842 14860 14864 14895 [...] (374 flits)
Class 0:
Remaining flits: 14711 14719 14768 14770 14803 14842 14860 14864 14895 14906 [...] (345 flits)
Measured flits: 14711 14719 14768 14770 14803 14842 14860 14864 14895 14906 [...] (345 flits)
Class 0:
Remaining flits: 14711 14719 14768 14770 14803 14842 14860 14864 14895 14906 [...] (326 flits)
Measured flits: 14711 14719 14768 14770 14803 14842 14860 14864 14895 14906 [...] (326 flits)
Class 0:
Remaining flits: 14711 14719 14768 14770 14803 14842 14860 14864 14895 14906 [...] (305 flits)
Measured flits: 14711 14719 14768 14770 14803 14842 14860 14864 14895 14906 [...] (305 flits)
Class 0:
Remaining flits: 14711 14768 14770 14842 14860 14864 14895 14906 14936 14956 [...] (276 flits)
Measured flits: 14711 14768 14770 14842 14860 14864 14895 14906 14936 14956 [...] (276 flits)
Class 0:
Remaining flits: 14768 14770 14842 14860 14864 14895 14906 14936 14956 14959 [...] (248 flits)
Measured flits: 14768 14770 14842 14860 14864 14895 14906 14936 14956 14959 [...] (248 flits)
Class 0:
Remaining flits: 14768 14770 14860 14895 14906 14936 14956 14959 14968 15002 [...] (231 flits)
Measured flits: 14768 14770 14860 14895 14906 14936 14956 14959 14968 15002 [...] (231 flits)
Class 0:
Remaining flits: 14768 14770 14860 14936 14956 14959 14968 15002 15032 15046 [...] (207 flits)
Measured flits: 14768 14770 14860 14936 14956 14959 14968 15002 15032 15046 [...] (207 flits)
Class 0:
Remaining flits: 14770 14860 14936 14956 14959 14968 15032 15062 15094 15122 [...] (180 flits)
Measured flits: 14770 14860 14936 14956 14959 14968 15032 15062 15094 15122 [...] (180 flits)
Class 0:
Remaining flits: 14770 14860 14956 14959 14968 15032 15062 15094 15122 15127 [...] (164 flits)
Measured flits: 14770 14860 14956 14959 14968 15032 15062 15094 15122 15127 [...] (164 flits)
Class 0:
Remaining flits: 14860 14956 14959 14968 15032 15062 15122 15127 15136 15139 [...] (139 flits)
Measured flits: 14860 14956 14959 14968 15032 15062 15122 15127 15136 15139 [...] (139 flits)
Class 0:
Remaining flits: 14860 14956 14959 14968 15032 15062 15122 15127 15136 15139 [...] (126 flits)
Measured flits: 14860 14956 14959 14968 15032 15062 15122 15127 15136 15139 [...] (126 flits)
Class 0:
Remaining flits: 14956 14959 14968 15032 15062 15122 15127 15136 15139 15188 [...] (106 flits)
Measured flits: 14956 14959 14968 15032 15062 15122 15127 15136 15139 15188 [...] (106 flits)
Class 0:
Remaining flits: 14956 14968 15032 15062 15122 15127 15139 15188 15245 15262 [...] (94 flits)
Measured flits: 14956 14968 15032 15062 15122 15127 15139 15188 15245 15262 [...] (94 flits)
Class 0:
Remaining flits: 14956 14968 15032 15062 15122 15127 15139 15188 15245 15262 [...] (80 flits)
Measured flits: 14956 14968 15032 15062 15122 15127 15139 15188 15245 15262 [...] (80 flits)
Class 0:
Remaining flits: 14956 14968 15032 15062 15122 15127 15139 15188 15245 15273 [...] (72 flits)
Measured flits: 14956 14968 15032 15062 15122 15127 15139 15188 15245 15273 [...] (72 flits)
Class 0:
Remaining flits: 14956 14968 15032 15062 15122 15127 15139 15188 15245 15273 [...] (67 flits)
Measured flits: 14956 14968 15032 15062 15122 15127 15139 15188 15245 15273 [...] (67 flits)
Class 0:
Remaining flits: 14968 15032 15062 15122 15127 15139 15188 15245 15273 15350 [...] (61 flits)
Measured flits: 14968 15032 15062 15122 15127 15139 15188 15245 15273 15350 [...] (61 flits)
Class 0:
Remaining flits: 14968 15032 15127 15139 15188 15245 15273 15350 15359 15373 [...] (50 flits)
Measured flits: 14968 15032 15127 15139 15188 15245 15273 15350 15359 15373 [...] (50 flits)
Class 0:
Remaining flits: 14968 15032 15127 15188 15245 15350 15359 15373 15381 15393 [...] (45 flits)
Measured flits: 14968 15032 15127 15188 15245 15350 15359 15373 15381 15393 [...] (45 flits)
Class 0:
Remaining flits: 14968 15032 15127 15188 15245 15350 15359 15381 15393 15406 [...] (42 flits)
Measured flits: 14968 15032 15127 15188 15245 15350 15359 15381 15393 15406 [...] (42 flits)
Class 0:
Remaining flits: 14968 15127 15188 15245 15350 15359 15381 15393 15406 15408 [...] (38 flits)
Measured flits: 14968 15127 15188 15245 15350 15359 15381 15393 15406 15408 [...] (38 flits)
Class 0:
Remaining flits: 14968 15188 15245 15350 15359 15381 15393 15406 15408 15425 [...] (33 flits)
Measured flits: 14968 15188 15245 15350 15359 15381 15393 15406 15408 15425 [...] (33 flits)
Class 0:
Remaining flits: 15188 15245 15350 15359 15393 15406 15408 15425 15433 15484 [...] (30 flits)
Measured flits: 15188 15245 15350 15359 15393 15406 15408 15425 15433 15484 [...] (30 flits)
Class 0:
Remaining flits: 15245 15350 15359 15393 15406 15408 15425 15433 15484 15512 [...] (27 flits)
Measured flits: 15245 15350 15359 15393 15406 15408 15425 15433 15484 15512 [...] (27 flits)
Class 0:
Remaining flits: 15359 15393 15406 15408 15425 15433 15484 15512 15517 15527 [...] (23 flits)
Measured flits: 15359 15393 15406 15408 15425 15433 15484 15512 15517 15527 [...] (23 flits)
Class 0:
Remaining flits: 15359 15393 15406 15408 15433 15484 15512 15517 15527 15588 [...] (19 flits)
Measured flits: 15359 15393 15406 15408 15433 15484 15512 15517 15527 15588 [...] (19 flits)
Class 0:
Remaining flits: 15359 15393 15406 15408 15433 15484 15512 15517 15588 15597 [...] (18 flits)
Measured flits: 15359 15393 15406 15408 15433 15484 15512 15517 15588 15597 [...] (18 flits)
Class 0:
Remaining flits: 15393 15433 15484 15512 15517 15588 15597 15606 15607 15609 [...] (15 flits)
Measured flits: 15393 15433 15484 15512 15517 15588 15597 15606 15607 15609 [...] (15 flits)
Class 0:
Remaining flits: 15393 15433 15484 15512 15588 15597 15606 15607 15609 15610 [...] (14 flits)
Measured flits: 15393 15433 15484 15512 15588 15597 15606 15607 15609 15610 [...] (14 flits)
Class 0:
Remaining flits: 15433 15484 15512 15597 15606 15607 15609 15610 15611 15612 [...] (12 flits)
Measured flits: 15433 15484 15512 15597 15606 15607 15609 15610 15611 15612 [...] (12 flits)
Class 0:
Remaining flits: 15433 15484 15512 15597 15606 15607 15609 15610 15611 15612 [...] (12 flits)
Measured flits: 15433 15484 15512 15597 15606 15607 15609 15610 15611 15612 [...] (12 flits)
Class 0:
Remaining flits: 15433 15512 15597 15606 15607 15609 15610 15611 15612 15613 [...] (11 flits)
Measured flits: 15433 15512 15597 15606 15607 15609 15610 15611 15612 15613 [...] (11 flits)
Class 0:
Remaining flits: 15433 15512 15597 15606 15607 15609 15610 15611 15612 15613 [...] (11 flits)
Measured flits: 15433 15512 15597 15606 15607 15609 15610 15611 15612 15613 [...] (11 flits)
Class 0:
Remaining flits: 15433 15512 15597 15606 15607 15609 15610 15611 15612 15613 [...] (11 flits)
Measured flits: 15433 15512 15597 15606 15607 15609 15610 15611 15612 15613 [...] (11 flits)
Class 0:
Remaining flits: 15433 15512 15597 15606 15607 15609 15610 15611 15612 15613 [...] (11 flits)
Measured flits: 15433 15512 15597 15606 15607 15609 15610 15611 15612 15613 [...] (11 flits)
Class 0:
Remaining flits: 15433 15512 15597 15606 15607 15609 15610 15611 15612 15613 [...] (11 flits)
Measured flits: 15433 15512 15597 15606 15607 15609 15610 15611 15612 15613 [...] (11 flits)
Class 0:
Remaining flits: 15433 15512 15597 15606 15607 15609 15610 15611 15612 15613 [...] (11 flits)
Measured flits: 15433 15512 15597 15606 15607 15609 15610 15611 15612 15613 [...] (11 flits)
Class 0:
Remaining flits: 15433 15512 15597 15606 15607 15609 15610 15611 15612 15613 [...] (11 flits)
Measured flits: 15433 15512 15597 15606 15607 15609 15610 15611 15612 15613 [...] (11 flits)
Class 0:
Remaining flits: 15433 15512 15597 15606 15607 15609 15610 15611 15612 15613 [...] (11 flits)
Measured flits: 15433 15512 15597 15606 15607 15609 15610 15611 15612 15613 [...] (11 flits)
Class 0:
Remaining flits: 15433 15512 15597 15606 15607 15609 15610 15611 15612 15613 [...] (11 flits)
Measured flits: 15433 15512 15597 15606 15607 15609 15610 15611 15612 15613 [...] (11 flits)
Class 0:
Remaining flits: 15433 15512 15597 15606 15607 15609 15610 15611 15612 15613 [...] (11 flits)
Measured flits: 15433 15512 15597 15606 15607 15609 15610 15611 15612 15613 [...] (11 flits)
Class 0:
Remaining flits: 15433 15512 15597 15606 15607 15609 15610 15611 15612 15613 [...] (11 flits)
Measured flits: 15433 15512 15597 15606 15607 15609 15610 15611 15612 15613 [...] (11 flits)
Class 0:
Remaining flits: 15433 15512 15597 15606 15607 15609 15610 15611 15612 15613 [...] (11 flits)
Measured flits: 15433 15512 15597 15606 15607 15609 15610 15611 15612 15613 [...] (11 flits)
Class 0:
Remaining flits: 15433 15512 15597 15606 15607 15609 15610 15611 15612 15613 [...] (11 flits)
Measured flits: 15433 15512 15597 15606 15607 15609 15610 15611 15612 15613 [...] (11 flits)
Class 0:
Remaining flits: 15433 15512 15597 15606 15607 15609 15610 15611 15612 15613 [...] (11 flits)
Measured flits: 15433 15512 15597 15606 15607 15609 15610 15611 15612 15613 [...] (11 flits)
Class 0:
Remaining flits: 15433 15512 15597 15606 15607 15609 15610 15611 15612 15613 [...] (11 flits)
Measured flits: 15433 15512 15597 15606 15607 15609 15610 15611 15612 15613 [...] (11 flits)
Class 0:
Remaining flits: 15433 15512 15597 15606 15607 15609 15610 15611 15612 15613 [...] (11 flits)
Measured flits: 15433 15512 15597 15606 15607 15609 15610 15611 15612 15613 [...] (11 flits)
Class 0:
Remaining flits: 15433 15512 15597 15606 15607 15609 15610 15611 15612 15613 [...] (11 flits)
Measured flits: 15433 15512 15597 15606 15607 15609 15610 15611 15612 15613 [...] (11 flits)
Class 0:
Remaining flits: 15433 15512 15597 15606 15607 15609 15610 15611 15612 15613 [...] (11 flits)
Measured flits: 15433 15512 15597 15606 15607 15609 15610 15611 15612 15613 [...] (11 flits)
Class 0:
Remaining flits: 15433 15512 15597 15606 15607 15609 15610 15611 15612 15613 [...] (11 flits)
Measured flits: 15433 15512 15597 15606 15607 15609 15610 15611 15612 15613 [...] (11 flits)
Class 0:
Remaining flits: 15433 15512 15597 15606 15607 15609 15610 15611 15612 15613 [...] (11 flits)
Measured flits: 15433 15512 15597 15606 15607 15609 15610 15611 15612 15613 [...] (11 flits)
Class 0:
Remaining flits: 15433 15512 15597 15606 15607 15609 15610 15611 15612 15613 [...] (11 flits)
Measured flits: 15433 15512 15597 15606 15607 15609 15610 15611 15612 15613 [...] (11 flits)
Class 0:
Remaining flits: 15433 15512 15597 15606 15607 15609 15610 15611 15612 15613 [...] (11 flits)
Measured flits: 15433 15512 15597 15606 15607 15609 15610 15611 15612 15613 [...] (11 flits)
Class 0:
Remaining flits: 15433 15512 15597 15606 15607 15609 15610 15611 15612 15613 [...] (11 flits)
Measured flits: 15433 15512 15597 15606 15607 15609 15610 15611 15612 15613 [...] (11 flits)
Class 0:
Remaining flits: 15433 15512 15597 15606 15607 15609 15610 15611 15612 15613 [...] (11 flits)
Measured flits: 15433 15512 15597 15606 15607 15609 15610 15611 15612 15613 [...] (11 flits)
Class 0:
Remaining flits: 15433 15512 15597 15606 15607 15609 15610 15611 15612 15613 [...] (11 flits)
Measured flits: 15433 15512 15597 15606 15607 15609 15610 15611 15612 15613 [...] (11 flits)
Class 0:
Remaining flits: 15433 15512 15597 15606 15607 15609 15610 15611 15612 15613 [...] (11 flits)
Measured flits: 15433 15512 15597 15606 15607 15609 15610 15611 15612 15613 [...] (11 flits)
Class 0:
Remaining flits: 15433 15512 15597 15606 15607 15609 15610 15611 15612 15613 [...] (11 flits)
Measured flits: 15433 15512 15597 15606 15607 15609 15610 15611 15612 15613 [...] (11 flits)
Class 0:
Remaining flits: 15433 15512 15597 15606 15607 15609 15610 15611 15612 15613 [...] (11 flits)
Measured flits: 15433 15512 15597 15606 15607 15609 15610 15611 15612 15613 [...] (11 flits)
Class 0:
Remaining flits: 15433 15512 15597 15606 15607 15609 15610 15611 15612 15613 [...] (11 flits)
Measured flits: 15433 15512 15597 15606 15607 15609 15610 15611 15612 15613 [...] (11 flits)
Class 0:
Remaining flits: 15433 15512 15597 15606 15607 15609 15610 15611 15612 15613 [...] (11 flits)
Measured flits: 15433 15512 15597 15606 15607 15609 15610 15611 15612 15613 [...] (11 flits)
Class 0:
Remaining flits: 15433 15512 15597 15606 15607 15609 15610 15611 15612 15613 [...] (11 flits)
Measured flits: 15433 15512 15597 15606 15607 15609 15610 15611 15612 15613 [...] (11 flits)
Class 0:
Remaining flits: 15433 15512 15597 15606 15607 15609 15610 15611 15612 15613 [...] (11 flits)
Measured flits: 15433 15512 15597 15606 15607 15609 15610 15611 15612 15613 [...] (11 flits)
Class 0:
Remaining flits: 15433 15512 15597 15606 15607 15609 15610 15611 15612 15613 [...] (11 flits)
Measured flits: 15433 15512 15597 15606 15607 15609 15610 15611 15612 15613 [...] (11 flits)
Class 0:
Remaining flits: 15433 15512 15597 15606 15607 15609 15610 15611 15612 15613 [...] (11 flits)
Measured flits: 15433 15512 15597 15606 15607 15609 15610 15611 15612 15613 [...] (11 flits)
Class 0:
Remaining flits: 15433 15512 15597 15606 15607 15609 15610 15611 15612 15613 [...] (11 flits)
Measured flits: 15433 15512 15597 15606 15607 15609 15610 15611 15612 15613 [...] (11 flits)
Class 0:
Remaining flits: 15433 15512 15597 15606 15607 15609 15610 15611 15612 15613 [...] (11 flits)
Measured flits: 15433 15512 15597 15606 15607 15609 15610 15611 15612 15613 [...] (11 flits)
Class 0:
Remaining flits: 15433 15512 15597 15606 15607 15609 15610 15611 15612 15613 [...] (11 flits)
Measured flits: 15433 15512 15597 15606 15607 15609 15610 15611 15612 15613 [...] (11 flits)
Class 0:
Remaining flits: 15433 15512 15597 15606 15607 15609 15610 15611 15612 15613 [...] (11 flits)
Measured flits: 15433 15512 15597 15606 15607 15609 15610 15611 15612 15613 [...] (11 flits)
Class 0:
Remaining flits: 15433 15512 15597 15606 15607 15609 15610 15611 15612 15613 [...] (11 flits)
Measured flits: 15433 15512 15597 15606 15607 15609 15610 15611 15612 15613 [...] (11 flits)
Class 0:
Remaining flits: 15433 15512 15597 15606 15607 15609 15610 15611 15612 15613 [...] (11 flits)
Measured flits: 15433 15512 15597 15606 15607 15609 15610 15611 15612 15613 [...] (11 flits)
Class 0:
Remaining flits: 15433 15512 15597 15606 15607 15609 15610 15611 15612 15613 [...] (11 flits)
Measured flits: 15433 15512 15597 15606 15607 15609 15610 15611 15612 15613 [...] (11 flits)
Class 0:
Remaining flits: 15433 15512 15597 15606 15607 15609 15610 15611 15612 15613 [...] (11 flits)
Measured flits: 15433 15512 15597 15606 15607 15609 15610 15611 15612 15613 [...] (11 flits)
Class 0:
Remaining flits: 15433 15512 15597 15606 15607 15609 15610 15611 15612 15613 [...] (11 flits)
Measured flits: 15433 15512 15597 15606 15607 15609 15610 15611 15612 15613 [...] (11 flits)
Class 0:
Remaining flits: 15433 15512 15597 15606 15607 15609 15610 15611 15612 15613 [...] (11 flits)
Measured flits: 15433 15512 15597 15606 15607 15609 15610 15611 15612 15613 [...] (11 flits)
Class 0:
Remaining flits: 15433 15512 15597 15606 15607 15609 15610 15611 15612 15613 [...] (11 flits)
Measured flits: 15433 15512 15597 15606 15607 15609 15610 15611 15612 15613 [...] (11 flits)
Class 0:
Remaining flits: 15433 15512 15597 15606 15607 15609 15610 15611 15612 15613 [...] (11 flits)
Measured flits: 15433 15512 15597 15606 15607 15609 15610 15611 15612 15613 [...] (11 flits)
Class 0:
Remaining flits: 15433 15512 15597 15606 15607 15609 15610 15611 15612 15613 [...] (11 flits)
Measured flits: 15433 15512 15597 15606 15607 15609 15610 15611 15612 15613 [...] (11 flits)
Class 0:
Remaining flits: 15433 15512 15597 15606 15607 15609 15610 15611 15612 15613 [...] (11 flits)
Measured flits: 15433 15512 15597 15606 15607 15609 15610 15611 15612 15613 [...] (11 flits)
Class 0:
Remaining flits: 15433 15512 15597 15606 15607 15609 15610 15611 15612 15613 [...] (11 flits)
Measured flits: 15433 15512 15597 15606 15607 15609 15610 15611 15612 15613 [...] (11 flits)
Class 0:
Remaining flits: 15433 15512 15597 15606 15607 15609 15610 15611 15612 15613 [...] (11 flits)
Measured flits: 15433 15512 15597 15606 15607 15609 15610 15611 15612 15613 [...] (11 flits)
Class 0:
Remaining flits: 15433 15512 15597 15606 15607 15609 15610 15611 15612 15613 [...] (11 flits)
Measured flits: 15433 15512 15597 15606 15607 15609 15610 15611 15612 15613 [...] (11 flits)
Class 0:
Remaining flits: 15433 15512 15597 15606 15607 15609 15610 15611 15612 15613 [...] (11 flits)
Measured flits: 15433 15512 15597 15606 15607 15609 15610 15611 15612 15613 [...] (11 flits)
Class 0:
Remaining flits: 15433 15512 15597 15606 15607 15609 15610 15611 15612 15613 [...] (11 flits)
Measured flits: 15433 15512 15597 15606 15607 15609 15610 15611 15612 15613 [...] (11 flits)
Class 0:
Remaining flits: 15433 15512 15597 15606 15607 15609 15610 15611 15612 15613 [...] (11 flits)
Measured flits: 15433 15512 15597 15606 15607 15609 15610 15611 15612 15613 [...] (11 flits)
Class 0:
Remaining flits: 15433 15512 15597 15606 15607 15609 15610 15611 15612 15613 [...] (11 flits)
Measured flits: 15433 15512 15597 15606 15607 15609 15610 15611 15612 15613 [...] (11 flits)
Class 0:
Remaining flits: 15433 15512 15597 15606 15607 15609 15610 15611 15612 15613 [...] (11 flits)
Measured flits: 15433 15512 15597 15606 15607 15609 15610 15611 15612 15613 [...] (11 flits)
Class 0:
Remaining flits: 15433 15512 15597 15606 15607 15609 15610 15611 15612 15613 [...] (11 flits)
Measured flits: 15433 15512 15597 15606 15607 15609 15610 15611 15612 15613 [...] (11 flits)
Class 0:
Remaining flits: 15433 15512 15597 15606 15607 15609 15610 15611 15612 15613 [...] (11 flits)
Measured flits: 15433 15512 15597 15606 15607 15609 15610 15611 15612 15613 [...] (11 flits)
Class 0:
Remaining flits: 15433 15512 15597 15606 15607 15609 15610 15611 15612 15613 [...] (11 flits)
Measured flits: 15433 15512 15597 15606 15607 15609 15610 15611 15612 15613 [...] (11 flits)
Class 0:
Remaining flits: 15433 15512 15597 15606 15607 15609 15610 15611 15612 15613 [...] (11 flits)
Measured flits: 15433 15512 15597 15606 15607 15609 15610 15611 15612 15613 [...] (11 flits)
Class 0:
Remaining flits: 15433 15512 15597 15606 15607 15609 15610 15611 15612 15613 [...] (11 flits)
Measured flits: 15433 15512 15597 15606 15607 15609 15610 15611 15612 15613 [...] (11 flits)
Class 0:
Remaining flits: 15433 15512 15597 15606 15607 15609 15610 15611 15612 15613 [...] (11 flits)
Measured flits: 15433 15512 15597 15606 15607 15609 15610 15611 15612 15613 [...] (11 flits)
Class 0:
Remaining flits: 15433 15512 15597 15606 15607 15609 15610 15611 15612 15613 [...] (11 flits)
Measured flits: 15433 15512 15597 15606 15607 15609 15610 15611 15612 15613 [...] (11 flits)
Class 0:
Remaining flits: 15433 15512 15597 15606 15607 15609 15610 15611 15612 15613 [...] (11 flits)
Measured flits: 15433 15512 15597 15606 15607 15609 15610 15611 15612 15613 [...] (11 flits)
Class 0:
Remaining flits: 15433 15512 15597 15606 15607 15609 15610 15611 15612 15613 [...] (11 flits)
Measured flits: 15433 15512 15597 15606 15607 15609 15610 15611 15612 15613 [...] (11 flits)
Time taken is 7000 cycles
====== Traffic class 0 ======

Total number of flits generated = 15620, changed lanes = 15469
Overall minimum packet latency = 1606 (1 samples)
Overall average packet latency = 2559.95 (1 samples)
Overall maximum packet latency = 3647 (1 samples)
Overall minimum network latency = 92 (1 samples)
Overall average network latency = 189.135 (1 samples)
Overall maximum network latency = 526 (1 samples)
Overall minimum flit latency = 92 (1 samples)
Overall average flit latency = 190.76 (1 samples)
Overall maximum flit latency = 526 (1 samples)
Overall minimum fragmentation = 0 (1 samples)
Overall average fragmentation = 0 (1 samples)
Overall maximum fragmentation = 0 (1 samples)
Overall minimum injected packet rate = 0.150333 (1 samples)
Overall average injected packet rate = 0.158646 (1 samples)
Overall maximum injected packet rate = 0.166667 (1 samples)
Overall minimum accepted packet rate = 0.143667 (1 samples)
Overall average accepted packet rate = 0.157917 (1 samples)
Overall maximum accepted packet rate = 0.170333 (1 samples)
Overall minimum injected flit rate = 0.150333 (1 samples)
Overall average injected flit rate = 0.158646 (1 samples)
Overall maximum injected flit rate = 0.166667 (1 samples)
Overall minimum accepted flit rate = 0.143667 (1 samples)
Overall average accepted flit rate = 0.157917 (1 samples)
Overall maximum accepted flit rate = 0.170333 (1 samples)
Overall average injected packet size = 1 (1 samples)
Overall average accepted packet size = 1 (1 samples)
Overall average hops = 3.5025 (1 samples)
Overall throughput of the network (flits/cycle) = 5.203
Overall throughput of the network (packets/cycle) = 5.203
Total run time 6971.73
