make: Nothing to be done for 'all'.
Master: Running timer....
Master: Running SRC....
BEGIN Configuration File: ./examples/bitrev
// Topology

topology = mesh;
k = 4;
n = 2;

// Routing
routing_function = dor;

// Flow control
num_vcs     = 4;
vc_buf_size = 4;
wait_for_tail_credit = 0;

// Router architecture
vc_allocator = islip;
sw_allocator = islip;
alloc_iters  = 1;

credit_delay   = 1;
routing_delay  = 1;
vc_alloc_delay = 1;
sw_alloc_delay = 1;

input_speedup     = 1;
output_speedup    = 1;
internal_speedup  = 1.0;

vc_busy_when_full = 0;

// Traffic
traffic = uniform;
packet_size = 1;

// Simulation
sim_type = throughput;

injection_rate = 0.17;

END Configuration File: ./examples/bitrev
===== Time: 1000 =====
Class 0:
Minimum packet latency = 8
Average packet latency = 86.4705
Maximum packet latency = 337
Minimum network latency = 9
Average network latency = 86.1893
Maximum network latency = 338
Slowest packet = 1574
Minimum flit latency = 9
Average flit latency = 86.1893
Maximum flit latency = 338
Slowest flit = 1574
Minimum fragmentation = 0
Average fragmentation = 0
Maximum fragmentation = 0
Minimum injected packet rate = 0.151 (at node 6)
Average injected packet rate = 0.16475
Maximum injected packet rate = 0.177 (at node 3)
Minimum accepted packet rate = 0.125 (at node 14)
Average accepted packet rate = 0.142
Maximum accepted packet rate = 0.153 (at node 1)
Minimum injected flit rate = 0.151 (at node 6)
Average injected flit rate = 0.16475
Maximum injected flit rate = 0.177 (at node 3)
Minimum accepted flit rate = 0.125 (at node 14)
Average accepted flit rate = 0.142
Maximum accepted flit rate = 0.153 (at node 1)
Total number of injected packets = 2636
Total number of injected flits = 2636
Average injected packet length = 1
Total number of accepted packets = 2272
Total number of accepted flits = 2272
Average accepted packet length = 1
Total in-flight flits = 366 (0 measured)
===== Time: 2000 =====
Class 0:
Minimum packet latency = 8
Average packet latency = 118.691
Maximum packet latency = 450
Minimum network latency = 9
Average network latency = 114.271
Maximum network latency = 380
Slowest packet = 3253
Minimum flit latency = 9
Average flit latency = 114.271
Maximum flit latency = 380
Slowest flit = 4000
Minimum fragmentation = 0
Average fragmentation = 0
Maximum fragmentation = 0
Minimum injected packet rate = 0.159 (at node 7)
Average injected packet rate = 0.1635
Maximum injected packet rate = 0.1705 (at node 10)
Minimum accepted packet rate = 0.1385 (at node 14)
Average accepted packet rate = 0.151406
Maximum accepted packet rate = 0.1665 (at node 8)
Minimum injected flit rate = 0.159 (at node 7)
Average injected flit rate = 0.1635
Maximum injected flit rate = 0.1705 (at node 10)
Minimum accepted flit rate = 0.1385 (at node 14)
Average accepted flit rate = 0.151406
Maximum accepted flit rate = 0.1665 (at node 8)
Total number of injected packets = 5232
Total number of injected flits = 5232
Average injected packet length = 1
Total number of accepted packets = 4845
Total number of accepted flits = 4845
Average accepted packet length = 1
Total in-flight flits = 392 (0 measured)
===== Time: 3000 =====
Class 0:
Minimum packet latency = 9
Average packet latency = 184.79
Maximum packet latency = 502
Minimum network latency = 10
Average network latency = 151.274
Maximum network latency = 466
Slowest packet = 4263
Minimum flit latency = 10
Average flit latency = 151.274
Maximum flit latency = 466
Slowest flit = 4580
Minimum fragmentation = 0
Average fragmentation = 0
Maximum fragmentation = 0
Minimum injected packet rate = 0.152 (at node 12)
Average injected packet rate = 0.163688
Maximum injected packet rate = 0.173 (at node 8)
Minimum accepted packet rate = 0.145 (at node 10)
Average accepted packet rate = 0.16175
Maximum accepted packet rate = 0.175 (at node 2)
Minimum injected flit rate = 0.152 (at node 12)
Average injected flit rate = 0.163688
Maximum injected flit rate = 0.173 (at node 8)
Minimum accepted flit rate = 0.145 (at node 10)
Average accepted flit rate = 0.16175
Maximum accepted flit rate = 0.175 (at node 2)
Total number of injected packets = 2619
Total number of injected flits = 2619
Average injected packet length = 1
Total number of accepted packets = 2588
Total number of accepted flits = 2588
Average accepted packet length = 1
Total in-flight flits = 424 (0 measured)
===== Time: 4000 =====
Class 0:
Minimum packet latency = 12
Average packet latency = 231.261
Maximum packet latency = 571
Minimum network latency = 13
Average network latency = 158.925
Maximum network latency = 472
Slowest packet = 7864
Minimum flit latency = 13
Average flit latency = 161.494
Maximum flit latency = 472
Slowest flit = 8860
Minimum fragmentation = 0
Average fragmentation = 0
Maximum fragmentation = 0
Minimum injected packet rate = 0.144 (at node 15)
Average injected packet rate = 0.160438
Maximum injected packet rate = 0.17 (at node 3)
Minimum accepted packet rate = 0.135 (at node 4)
Average accepted packet rate = 0.160125
Maximum accepted packet rate = 0.178 (at node 7)
Minimum injected flit rate = 0.144 (at node 15)
Average injected flit rate = 0.160438
Maximum injected flit rate = 0.17 (at node 3)
Minimum accepted flit rate = 0.135 (at node 4)
Average accepted flit rate = 0.160125
Maximum accepted flit rate = 0.178 (at node 7)
Total number of injected packets = 2567
Total number of injected flits = 2567
Average injected packet length = 1
Total number of accepted packets = 2562
Total number of accepted flits = 2562
Average accepted packet length = 1
Total in-flight flits = 434 (434 measured)
===== Time: 5000 =====
Class 0:
Minimum packet latency = 12
Average packet latency = 269.504
Maximum packet latency = 729
Minimum network latency = 13
Average network latency = 171.865
Maximum network latency = 578
Slowest packet = 7864
Minimum flit latency = 13
Average flit latency = 172.083
Maximum flit latency = 578
Slowest flit = 10496
Minimum fragmentation = 0
Average fragmentation = 0
Maximum fragmentation = 0
Minimum injected packet rate = 0.1505 (at node 15)
Average injected packet rate = 0.159031
Maximum injected packet rate = 0.1685 (at node 3)
Minimum accepted packet rate = 0.132 (at node 4)
Average accepted packet rate = 0.156688
Maximum accepted packet rate = 0.1745 (at node 7)
Minimum injected flit rate = 0.1505 (at node 15)
Average injected flit rate = 0.159031
Maximum injected flit rate = 0.1685 (at node 3)
Minimum accepted flit rate = 0.132 (at node 4)
Average accepted flit rate = 0.156688
Maximum accepted flit rate = 0.1745 (at node 7)
Total number of injected packets = 5089
Total number of injected flits = 5089
Average injected packet length = 1
Total number of accepted packets = 5014
Total number of accepted flits = 5014
Average accepted packet length = 1
Total in-flight flits = 506 (506 measured)
===== Time: 6000 =====
Class 0:
Minimum packet latency = 12
Average packet latency = 305.567
Maximum packet latency = 1086
Minimum network latency = 13
Average network latency = 180.472
Maximum network latency = 603
Slowest packet = 7864
Minimum flit latency = 13
Average flit latency = 180.132
Maximum flit latency = 603
Slowest flit = 13430
Minimum fragmentation = 0
Average fragmentation = 0
Maximum fragmentation = 0
Minimum injected packet rate = 0.14 (at node 6)
Average injected packet rate = 0.157604
Maximum injected packet rate = 0.165667 (at node 3)
Minimum accepted packet rate = 0.136333 (at node 4)
Average accepted packet rate = 0.156292
Maximum accepted packet rate = 0.171667 (at node 7)
Minimum injected flit rate = 0.14 (at node 6)
Average injected flit rate = 0.157604
Maximum injected flit rate = 0.165667 (at node 3)
Minimum accepted flit rate = 0.136333 (at node 4)
Average accepted flit rate = 0.156292
Maximum accepted flit rate = 0.171667 (at node 7)
Total number of injected packets = 7565
Total number of injected flits = 7565
Average injected packet length = 1
Total number of accepted packets = 7502
Total number of accepted flits = 7502
Average accepted packet length = 1
Total in-flight flits = 493 (493 measured)
Draining remaining packets ...
Class 0:
Remaining flits: 14229 14274 14291 14306 14322 14325 14353 14380 14396 14404 [...] (469 flits)
Measured flits: 14229 14274 14291 14306 14322 14325 14353 14380 14396 14404 [...] (469 flits)
Class 0:
Remaining flits: 14229 14274 14291 14306 14322 14353 14380 14396 14404 14423 [...] (449 flits)
Measured flits: 14229 14274 14291 14306 14322 14353 14380 14396 14404 14423 [...] (449 flits)
Class 0:
Remaining flits: 14229 14274 14291 14306 14322 14353 14380 14396 14404 14423 [...] (432 flits)
Measured flits: 14229 14274 14291 14306 14322 14353 14380 14396 14404 14423 [...] (432 flits)
Class 0:
Remaining flits: 14229 14274 14291 14322 14353 14380 14396 14404 14423 14442 [...] (403 flits)
Measured flits: 14229 14274 14291 14322 14353 14380 14396 14404 14423 14442 [...] (403 flits)
Class 0:
Remaining flits: 14229 14274 14291 14322 14353 14380 14396 14404 14423 14442 [...] (382 flits)
Measured flits: 14229 14274 14291 14322 14353 14380 14396 14404 14423 14442 [...] (382 flits)
Class 0:
Remaining flits: 14229 14274 14291 14322 14380 14396 14404 14423 14442 14455 [...] (355 flits)
Measured flits: 14229 14274 14291 14322 14380 14396 14404 14423 14442 14455 [...] (355 flits)
Class 0:
Remaining flits: 14229 14274 14291 14380 14396 14404 14423 14442 14455 14498 [...] (326 flits)
Measured flits: 14229 14274 14291 14380 14396 14404 14423 14442 14455 14498 [...] (326 flits)
Class 0:
Remaining flits: 14229 14274 14291 14380 14396 14404 14423 14442 14455 14498 [...] (303 flits)
Measured flits: 14229 14274 14291 14380 14396 14404 14423 14442 14455 14498 [...] (303 flits)
Class 0:
Remaining flits: 14229 14274 14291 14380 14396 14423 14442 14455 14498 14540 [...] (285 flits)
Measured flits: 14229 14274 14291 14380 14396 14423 14442 14455 14498 14540 [...] (285 flits)
Class 0:
Remaining flits: 14229 14274 14291 14380 14396 14423 14442 14455 14498 14540 [...] (259 flits)
Measured flits: 14229 14274 14291 14380 14396 14423 14442 14455 14498 14540 [...] (259 flits)
Class 0:
Remaining flits: 14229 14380 14423 14442 14498 14596 14694 14735 14784 14797 [...] (228 flits)
Measured flits: 14229 14380 14423 14442 14498 14596 14694 14735 14784 14797 [...] (228 flits)
Class 0:
Remaining flits: 14229 14423 14442 14498 14596 14694 14784 14797 14813 14815 [...] (201 flits)
Measured flits: 14229 14423 14442 14498 14596 14694 14784 14797 14813 14815 [...] (201 flits)
Class 0:
Remaining flits: 14423 14498 14596 14694 14784 14797 14813 14815 14824 14859 [...] (181 flits)
Measured flits: 14423 14498 14596 14694 14784 14797 14813 14815 14824 14859 [...] (181 flits)
Class 0:
Remaining flits: 14423 14498 14596 14694 14797 14813 14815 14824 14859 14900 [...] (162 flits)
Measured flits: 14423 14498 14596 14694 14797 14813 14815 14824 14859 14900 [...] (162 flits)
Class 0:
Remaining flits: 14423 14498 14596 14694 14797 14815 14859 14900 14909 14916 [...] (139 flits)
Measured flits: 14423 14498 14596 14694 14797 14815 14859 14900 14909 14916 [...] (139 flits)
Class 0:
Remaining flits: 14423 14498 14596 14797 14815 14859 14900 14909 14916 14920 [...] (121 flits)
Measured flits: 14423 14498 14596 14797 14815 14859 14900 14909 14916 14920 [...] (121 flits)
Class 0:
Remaining flits: 14423 14596 14797 14859 14900 14909 14916 14920 14942 14943 [...] (104 flits)
Measured flits: 14423 14596 14797 14859 14900 14909 14916 14920 14942 14943 [...] (104 flits)
Class 0:
Remaining flits: 14423 14596 14797 14859 14900 14909 14916 14920 14942 14943 [...] (90 flits)
Measured flits: 14423 14596 14797 14859 14900 14909 14916 14920 14942 14943 [...] (90 flits)
Class 0:
Remaining flits: 14423 14596 14797 14859 14909 14916 14920 14942 14943 14948 [...] (70 flits)
Measured flits: 14423 14596 14797 14859 14909 14916 14920 14942 14943 14948 [...] (70 flits)
Class 0:
Remaining flits: 14423 14797 14859 14909 14916 14920 14942 14943 14948 14967 [...] (61 flits)
Measured flits: 14423 14797 14859 14909 14916 14920 14942 14943 14948 14967 [...] (61 flits)
Class 0:
Remaining flits: 14423 14797 14859 14909 14920 14942 14948 14967 15003 15038 [...] (51 flits)
Measured flits: 14423 14797 14859 14909 14920 14942 14948 14967 15003 15038 [...] (51 flits)
Class 0:
Remaining flits: 14797 14859 14909 14920 14942 14948 15003 15038 15054 15123 [...] (42 flits)
Measured flits: 14797 14859 14909 14920 14942 14948 15003 15038 15054 15123 [...] (42 flits)
Class 0:
Remaining flits: 14859 14909 14920 14942 14948 15003 15054 15123 15179 15212 [...] (34 flits)
Measured flits: 14859 14909 14920 14942 14948 15003 15054 15123 15179 15212 [...] (34 flits)
Class 0:
Remaining flits: 14909 14920 14948 15054 15123 15179 15212 15226 15241 15264 [...] (27 flits)
Measured flits: 14909 14920 14948 15054 15123 15179 15212 15226 15241 15264 [...] (27 flits)
Class 0:
Remaining flits: 14909 14920 14948 15054 15123 15179 15212 15226 15264 15324 [...] (23 flits)
Measured flits: 14909 14920 14948 15054 15123 15179 15212 15226 15264 15324 [...] (23 flits)
Class 0:
Remaining flits: 14909 14920 14948 15054 15123 15179 15212 15226 15264 15324 [...] (23 flits)
Measured flits: 14909 14920 14948 15054 15123 15179 15212 15226 15264 15324 [...] (23 flits)
Class 0:
Remaining flits: 14909 14920 14948 15054 15123 15179 15212 15226 15264 15324 [...] (21 flits)
Measured flits: 14909 14920 14948 15054 15123 15179 15212 15226 15264 15324 [...] (21 flits)
Class 0:
Remaining flits: 14948 15054 15123 15179 15212 15226 15324 15365 15384 15403 [...] (17 flits)
Measured flits: 14948 15054 15123 15179 15212 15226 15324 15365 15384 15403 [...] (17 flits)
Class 0:
Remaining flits: 14948 15054 15123 15179 15212 15226 15324 15365 15384 15403 [...] (17 flits)
Measured flits: 14948 15054 15123 15179 15212 15226 15324 15365 15384 15403 [...] (17 flits)
Class 0:
Remaining flits: 14948 15123 15179 15226 15324 15365 15384 15403 15408 15409 [...] (15 flits)
Measured flits: 14948 15123 15179 15226 15324 15365 15384 15403 15408 15409 [...] (15 flits)
Class 0:
Remaining flits: 15179 15226 15324 15384 15403 15408 15409 15412 15418 15420 [...] (12 flits)
Measured flits: 15179 15226 15324 15384 15403 15408 15409 15412 15418 15420 [...] (12 flits)
Class 0:
Remaining flits: 15179 15226 15324 15384 15408 15409 15412 15418 15420 15421 [...] (11 flits)
Measured flits: 15179 15226 15324 15384 15408 15409 15412 15418 15420 15421 [...] (11 flits)
Class 0:
Remaining flits: 15179 15324 15384 15408 15409 15412 15418 15420 15421 15422 (10 flits)
Measured flits: 15179 15324 15384 15408 15409 15412 15418 15420 15421 15422 (10 flits)
Class 0:
Remaining flits: 15324 15384 15408 15409 15412 15418 15420 15421 15422 (9 flits)
Measured flits: 15324 15384 15408 15409 15412 15418 15420 15421 15422 (9 flits)
Class 0:
Remaining flits: 15384 15408 15409 15412 15418 15420 15421 15422 (8 flits)
Measured flits: 15384 15408 15409 15412 15418 15420 15421 15422 (8 flits)
Class 0:
Remaining flits: 15408 15409 15412 15418 15420 15421 15422 (7 flits)
Measured flits: 15408 15409 15412 15418 15420 15421 15422 (7 flits)
Class 0:
Remaining flits: 15408 15409 15412 15418 15420 15421 15422 (7 flits)
Measured flits: 15408 15409 15412 15418 15420 15421 15422 (7 flits)
Class 0:
Remaining flits: 15408 15409 15412 15418 15420 15421 15422 (7 flits)
Measured flits: 15408 15409 15412 15418 15420 15421 15422 (7 flits)
Class 0:
Remaining flits: 15408 15409 15412 15418 15420 15421 15422 (7 flits)
Measured flits: 15408 15409 15412 15418 15420 15421 15422 (7 flits)
Class 0:
Remaining flits: 15408 15409 15412 15418 15420 15421 15422 (7 flits)
Measured flits: 15408 15409 15412 15418 15420 15421 15422 (7 flits)
Class 0:
Remaining flits: 15408 15409 15412 15418 15420 15421 15422 (7 flits)
Measured flits: 15408 15409 15412 15418 15420 15421 15422 (7 flits)
Class 0:
Remaining flits: 15408 15409 15412 15418 15420 15421 15422 (7 flits)
Measured flits: 15408 15409 15412 15418 15420 15421 15422 (7 flits)
Class 0:
Remaining flits: 15408 15409 15412 15418 15420 15421 15422 (7 flits)
Measured flits: 15408 15409 15412 15418 15420 15421 15422 (7 flits)
Class 0:
Remaining flits: 15408 15409 15412 15418 15420 15421 15422 (7 flits)
Measured flits: 15408 15409 15412 15418 15420 15421 15422 (7 flits)
Class 0:
Remaining flits: 15408 15409 15412 15418 15420 15421 15422 (7 flits)
Measured flits: 15408 15409 15412 15418 15420 15421 15422 (7 flits)
Class 0:
Remaining flits: 15408 15409 15412 15418 15420 15421 15422 (7 flits)
Measured flits: 15408 15409 15412 15418 15420 15421 15422 (7 flits)
Class 0:
Remaining flits: 15408 15409 15412 15418 15420 15421 15422 (7 flits)
Measured flits: 15408 15409 15412 15418 15420 15421 15422 (7 flits)
Class 0:
Remaining flits: 15408 15409 15412 15418 15420 15421 15422 (7 flits)
Measured flits: 15408 15409 15412 15418 15420 15421 15422 (7 flits)
Class 0:
Remaining flits: 15408 15409 15412 15418 15420 15421 15422 (7 flits)
Measured flits: 15408 15409 15412 15418 15420 15421 15422 (7 flits)
Class 0:
Remaining flits: 15408 15409 15412 15418 15420 15421 15422 (7 flits)
Measured flits: 15408 15409 15412 15418 15420 15421 15422 (7 flits)
Class 0:
Remaining flits: 15408 15409 15412 15418 15420 15421 15422 (7 flits)
Measured flits: 15408 15409 15412 15418 15420 15421 15422 (7 flits)
Class 0:
Remaining flits: 15408 15409 15412 15418 15420 15421 15422 (7 flits)
Measured flits: 15408 15409 15412 15418 15420 15421 15422 (7 flits)
Class 0:
Remaining flits: 15408 15409 15412 15418 15420 15421 15422 (7 flits)
Measured flits: 15408 15409 15412 15418 15420 15421 15422 (7 flits)
Class 0:
Remaining flits: 15408 15409 15412 15418 15420 15421 15422 (7 flits)
Measured flits: 15408 15409 15412 15418 15420 15421 15422 (7 flits)
Class 0:
Remaining flits: 15408 15409 15412 15418 15420 15421 15422 (7 flits)
Measured flits: 15408 15409 15412 15418 15420 15421 15422 (7 flits)
Class 0:
Remaining flits: 15408 15409 15412 15418 15420 15421 15422 (7 flits)
Measured flits: 15408 15409 15412 15418 15420 15421 15422 (7 flits)
Class 0:
Remaining flits: 15408 15409 15412 15418 15420 15421 15422 (7 flits)
Measured flits: 15408 15409 15412 15418 15420 15421 15422 (7 flits)
Class 0:
Remaining flits: 15408 15409 15412 15418 15420 15421 15422 (7 flits)
Measured flits: 15408 15409 15412 15418 15420 15421 15422 (7 flits)
Class 0:
Remaining flits: 15408 15409 15412 15418 15420 15421 15422 (7 flits)
Measured flits: 15408 15409 15412 15418 15420 15421 15422 (7 flits)
Class 0:
Remaining flits: 15408 15409 15412 15418 15420 15421 15422 (7 flits)
Measured flits: 15408 15409 15412 15418 15420 15421 15422 (7 flits)
Class 0:
Remaining flits: 15408 15409 15412 15418 15420 15421 15422 (7 flits)
Measured flits: 15408 15409 15412 15418 15420 15421 15422 (7 flits)
Class 0:
Remaining flits: 15408 15409 15412 15418 15420 15421 15422 (7 flits)
Measured flits: 15408 15409 15412 15418 15420 15421 15422 (7 flits)
Class 0:
Remaining flits: 15408 15409 15412 15418 15420 15421 15422 (7 flits)
Measured flits: 15408 15409 15412 15418 15420 15421 15422 (7 flits)
Class 0:
Remaining flits: 15408 15409 15412 15418 15420 15421 15422 (7 flits)
Measured flits: 15408 15409 15412 15418 15420 15421 15422 (7 flits)
Class 0:
Remaining flits: 15408 15409 15412 15418 15420 15421 15422 (7 flits)
Measured flits: 15408 15409 15412 15418 15420 15421 15422 (7 flits)
Class 0:
Remaining flits: 15408 15409 15412 15418 15420 15421 15422 (7 flits)
Measured flits: 15408 15409 15412 15418 15420 15421 15422 (7 flits)
Class 0:
Remaining flits: 15408 15409 15412 15418 15420 15421 15422 (7 flits)
Measured flits: 15408 15409 15412 15418 15420 15421 15422 (7 flits)
Class 0:
Remaining flits: 15408 15409 15412 15418 15420 15421 15422 (7 flits)
Measured flits: 15408 15409 15412 15418 15420 15421 15422 (7 flits)
Class 0:
Remaining flits: 15408 15409 15412 15418 15420 15421 15422 (7 flits)
Measured flits: 15408 15409 15412 15418 15420 15421 15422 (7 flits)
Class 0:
Remaining flits: 15408 15409 15412 15418 15420 15421 15422 (7 flits)
Measured flits: 15408 15409 15412 15418 15420 15421 15422 (7 flits)
Class 0:
Remaining flits: 15408 15409 15412 15418 15420 15421 15422 (7 flits)
Measured flits: 15408 15409 15412 15418 15420 15421 15422 (7 flits)
Class 0:
Remaining flits: 15408 15409 15412 15418 15420 15421 15422 (7 flits)
Measured flits: 15408 15409 15412 15418 15420 15421 15422 (7 flits)
Class 0:
Remaining flits: 15408 15409 15412 15418 15420 15421 15422 (7 flits)
Measured flits: 15408 15409 15412 15418 15420 15421 15422 (7 flits)
Class 0:
Remaining flits: 15408 15409 15412 15418 15420 15421 15422 (7 flits)
Measured flits: 15408 15409 15412 15418 15420 15421 15422 (7 flits)
Class 0:
Remaining flits: 15408 15409 15412 15418 15420 15421 15422 (7 flits)
Measured flits: 15408 15409 15412 15418 15420 15421 15422 (7 flits)
Class 0:
Remaining flits: 15408 15409 15412 15418 15420 15421 15422 (7 flits)
Measured flits: 15408 15409 15412 15418 15420 15421 15422 (7 flits)
Class 0:
Remaining flits: 15408 15409 15412 15418 15420 15421 15422 (7 flits)
Measured flits: 15408 15409 15412 15418 15420 15421 15422 (7 flits)
Class 0:
Remaining flits: 15408 15409 15412 15418 15420 15421 15422 (7 flits)
Measured flits: 15408 15409 15412 15418 15420 15421 15422 (7 flits)
Class 0:
Remaining flits: 15408 15409 15412 15418 15420 15421 15422 (7 flits)
Measured flits: 15408 15409 15412 15418 15420 15421 15422 (7 flits)
Class 0:
Remaining flits: 15408 15409 15412 15418 15420 15421 15422 (7 flits)
Measured flits: 15408 15409 15412 15418 15420 15421 15422 (7 flits)
Class 0:
Remaining flits: 15408 15409 15412 15418 15420 15421 15422 (7 flits)
Measured flits: 15408 15409 15412 15418 15420 15421 15422 (7 flits)
Class 0:
Remaining flits: 15408 15409 15412 15418 15420 15421 15422 (7 flits)
Measured flits: 15408 15409 15412 15418 15420 15421 15422 (7 flits)
Class 0:
Remaining flits: 15408 15409 15412 15418 15420 15421 15422 (7 flits)
Measured flits: 15408 15409 15412 15418 15420 15421 15422 (7 flits)
Class 0:
Remaining flits: 15408 15409 15412 15418 15420 15421 15422 (7 flits)
Measured flits: 15408 15409 15412 15418 15420 15421 15422 (7 flits)
Class 0:
Remaining flits: 15408 15409 15412 15418 15420 15421 15422 (7 flits)
Measured flits: 15408 15409 15412 15418 15420 15421 15422 (7 flits)
Class 0:
Remaining flits: 15408 15409 15412 15418 15420 15421 15422 (7 flits)
Measured flits: 15408 15409 15412 15418 15420 15421 15422 (7 flits)
Class 0:
Remaining flits: 15408 15409 15412 15418 15420 15421 15422 (7 flits)
Measured flits: 15408 15409 15412 15418 15420 15421 15422 (7 flits)
Class 0:
Remaining flits: 15408 15409 15412 15418 15420 15421 15422 (7 flits)
Measured flits: 15408 15409 15412 15418 15420 15421 15422 (7 flits)
Class 0:
Remaining flits: 15408 15409 15412 15418 15420 15421 15422 (7 flits)
Measured flits: 15408 15409 15412 15418 15420 15421 15422 (7 flits)
Class 0:
Remaining flits: 15408 15409 15412 15418 15420 15421 15422 (7 flits)
Measured flits: 15408 15409 15412 15418 15420 15421 15422 (7 flits)
Class 0:
Remaining flits: 15408 15409 15412 15418 15420 15421 15422 (7 flits)
Measured flits: 15408 15409 15412 15418 15420 15421 15422 (7 flits)
Class 0:
Remaining flits: 15408 15409 15412 15418 15420 15421 15422 (7 flits)
Measured flits: 15408 15409 15412 15418 15420 15421 15422 (7 flits)
Class 0:
Remaining flits: 15408 15409 15412 15418 15420 15421 15422 (7 flits)
Measured flits: 15408 15409 15412 15418 15420 15421 15422 (7 flits)
Class 0:
Remaining flits: 15408 15409 15412 15418 15420 15421 15422 (7 flits)
Measured flits: 15408 15409 15412 15418 15420 15421 15422 (7 flits)
Class 0:
Remaining flits: 15408 15409 15412 15418 15420 15421 15422 (7 flits)
Measured flits: 15408 15409 15412 15418 15420 15421 15422 (7 flits)
Class 0:
Remaining flits: 15408 15409 15412 15418 15420 15421 15422 (7 flits)
Measured flits: 15408 15409 15412 15418 15420 15421 15422 (7 flits)
Class 0:
Remaining flits: 15408 15409 15412 15418 15420 15421 15422 (7 flits)
Measured flits: 15408 15409 15412 15418 15420 15421 15422 (7 flits)
Class 0:
Remaining flits: 15408 15409 15412 15418 15420 15421 15422 (7 flits)
Measured flits: 15408 15409 15412 15418 15420 15421 15422 (7 flits)
Class 0:
Remaining flits: 15408 15409 15412 15418 15420 15421 15422 (7 flits)
Measured flits: 15408 15409 15412 15418 15420 15421 15422 (7 flits)
Class 0:
Remaining flits: 15408 15409 15412 15418 15420 15421 15422 (7 flits)
Measured flits: 15408 15409 15412 15418 15420 15421 15422 (7 flits)
Class 0:
Remaining flits: 15408 15409 15412 15418 15420 15421 15422 (7 flits)
Measured flits: 15408 15409 15412 15418 15420 15421 15422 (7 flits)
Time taken is 7000 cycles
====== Traffic class 0 ======

Total number of flits generated = 15428, changed lanes = 15268
Overall minimum packet latency = 12 (1 samples)
Overall average packet latency = 315.61 (1 samples)
Overall maximum packet latency = 1220 (1 samples)
Overall minimum network latency = 13 (1 samples)
Overall average network latency = 183.555 (1 samples)
Overall maximum network latency = 613 (1 samples)
Overall minimum flit latency = 13 (1 samples)
Overall average flit latency = 183.072 (1 samples)
Overall maximum flit latency = 613 (1 samples)
Overall minimum fragmentation = 0 (1 samples)
Overall average fragmentation = 0 (1 samples)
Overall maximum fragmentation = 0 (1 samples)
Overall minimum injected packet rate = 0.14 (1 samples)
Overall average injected packet rate = 0.157604 (1 samples)
Overall maximum injected packet rate = 0.165667 (1 samples)
Overall minimum accepted packet rate = 0.136333 (1 samples)
Overall average accepted packet rate = 0.156292 (1 samples)
Overall maximum accepted packet rate = 0.171667 (1 samples)
Overall minimum injected flit rate = 0.14 (1 samples)
Overall average injected flit rate = 0.157604 (1 samples)
Overall maximum injected flit rate = 0.165667 (1 samples)
Overall minimum accepted flit rate = 0.136333 (1 samples)
Overall average accepted flit rate = 0.156292 (1 samples)
Overall maximum accepted flit rate = 0.171667 (1 samples)
Overall average injected packet size = 1 (1 samples)
Overall average accepted packet size = 1 (1 samples)
Overall average hops = 3.51824 (1 samples)
Overall throughput of the network (flits/cycle) = 5.14033
Overall throughput of the network (packets/cycle) = 5.14033
Total run time 5324.88
