make: Nothing to be done for 'all'.
Master: Running timer....
Master: Running SRC....
BEGIN Configuration File: ./examples/bitrev
// Topology

topology = mesh;
k = 4;
n = 2;

// Routing
routing_function = dor;

// Flow control
num_vcs     = 4;
vc_buf_size = 4;
wait_for_tail_credit = 0;

// Router architecture
vc_allocator = islip;
sw_allocator = islip;
alloc_iters  = 1;

credit_delay   = 1;
routing_delay  = 1;
vc_alloc_delay = 1;
sw_alloc_delay = 1;

input_speedup     = 1;
output_speedup    = 1;
internal_speedup  = 1.0;

vc_busy_when_full = 0;

// Traffic
traffic = transpose;
packet_size = 1;

// Simulation
sim_type = throughput;

injection_rate = 0.05;

END Configuration File: ./examples/bitrev
===== Time: 10000 =====
Class 0:
Minimum packet latency = 8
Average packet latency = 48.9173
Maximum packet latency = 260
Minimum network latency = 9
Average network latency = 49.9173
Maximum network latency = 261
Slowest packet = 1973
Minimum flit latency = 9
Average flit latency = 49.9173
Maximum flit latency = 261
Slowest flit = 1973
Minimum fragmentation = 0
Average fragmentation = 0
Maximum fragmentation = 0
Minimum injected packet rate = 0.0458 (at node 0)
Average injected packet rate = 0.0494687
Maximum injected packet rate = 0.0515 (at node 12)
Minimum accepted packet rate = 0.0458 (at node 0)
Average accepted packet rate = 0.0492688
Maximum accepted packet rate = 0.0512 (at node 3)
Minimum injected flit rate = 0.0458 (at node 0)
Average injected flit rate = 0.0494687
Maximum injected flit rate = 0.0515 (at node 12)
Minimum accepted flit rate = 0.0458 (at node 0)
Average accepted flit rate = 0.0492688
Maximum accepted flit rate = 0.0512 (at node 3)
Total number of injected packets = 7915
Total number of injected flits = 7915
Average injected packet length = 1
Total number of accepted packets = 7883
Total number of accepted flits = 7883
Average accepted packet length = 1
Total in-flight flits = 32 (0 measured)
===== Time: 20000 =====
Class 0:
Minimum packet latency = 8
Average packet latency = 49.6563
Maximum packet latency = 306
Minimum network latency = 9
Average network latency = 50.6563
Maximum network latency = 307
Slowest packet = 14895
Minimum flit latency = 9
Average flit latency = 50.6563
Maximum flit latency = 307
Slowest flit = 14895
Minimum fragmentation = 0
Average fragmentation = 0
Maximum fragmentation = 0
Minimum injected packet rate = 0.0483 (at node 8)
Average injected packet rate = 0.0500375
Maximum injected packet rate = 0.0526 (at node 12)
Minimum accepted packet rate = 0.0481 (at node 2)
Average accepted packet rate = 0.049925
Maximum accepted packet rate = 0.0524 (at node 3)
Minimum injected flit rate = 0.0483 (at node 8)
Average injected flit rate = 0.0500375
Maximum injected flit rate = 0.0526 (at node 12)
Minimum accepted flit rate = 0.0481 (at node 2)
Average accepted flit rate = 0.049925
Maximum accepted flit rate = 0.0524 (at node 3)
Total number of injected packets = 16012
Total number of injected flits = 16012
Average injected packet length = 1
Total number of accepted packets = 15976
Total number of accepted flits = 15976
Average accepted packet length = 1
Total in-flight flits = 36 (0 measured)
===== Time: 30000 =====
Class 0:
Minimum packet latency = 8
Average packet latency = 50.1582
Maximum packet latency = 234
Minimum network latency = 9
Average network latency = 51.1582
Maximum network latency = 235
Slowest packet = 16873
Minimum flit latency = 9
Average flit latency = 51.1582
Maximum flit latency = 235
Slowest flit = 16873
Minimum fragmentation = 0
Average fragmentation = 0
Maximum fragmentation = 0
Minimum injected packet rate = 0.045 (at node 15)
Average injected packet rate = 0.0495875
Maximum injected packet rate = 0.0541 (at node 13)
Minimum accepted packet rate = 0.045 (at node 15)
Average accepted packet rate = 0.049625
Maximum accepted packet rate = 0.0541 (at node 7)
Minimum injected flit rate = 0.045 (at node 15)
Average injected flit rate = 0.0495875
Maximum injected flit rate = 0.0541 (at node 13)
Minimum accepted flit rate = 0.045 (at node 15)
Average accepted flit rate = 0.049625
Maximum accepted flit rate = 0.0541 (at node 7)
Total number of injected packets = 7934
Total number of injected flits = 7934
Average injected packet length = 1
Total number of accepted packets = 7940
Total number of accepted flits = 7940
Average accepted packet length = 1
Total in-flight flits = 30 (0 measured)
===== Time: 40000 =====
Class 0:
Minimum packet latency = 8
Average packet latency = 48.6786
Maximum packet latency = 196
Minimum network latency = 9
Average network latency = 49.6786
Maximum network latency = 197
Slowest packet = 28224
Minimum flit latency = 9
Average flit latency = 49.7212
Maximum flit latency = 197
Slowest flit = 28224
Minimum fragmentation = 0
Average fragmentation = 0
Maximum fragmentation = 0
Minimum injected packet rate = 0.0473 (at node 6)
Average injected packet rate = 0.0501938
Maximum injected packet rate = 0.0543 (at node 14)
Minimum accepted packet rate = 0.0472 (at node 9)
Average accepted packet rate = 0.05005
Maximum accepted packet rate = 0.0535 (at node 11)
Minimum injected flit rate = 0.0473 (at node 6)
Average injected flit rate = 0.0501938
Maximum injected flit rate = 0.0543 (at node 14)
Minimum accepted flit rate = 0.0472 (at node 9)
Average accepted flit rate = 0.05005
Maximum accepted flit rate = 0.0535 (at node 11)
Total number of injected packets = 8031
Total number of injected flits = 8031
Average injected packet length = 1
Total number of accepted packets = 8008
Total number of accepted flits = 8008
Average accepted packet length = 1
Total in-flight flits = 53 (53 measured)
===== Time: 50000 =====
Class 0:
Minimum packet latency = 8
Average packet latency = 51.3671
Maximum packet latency = 295
Minimum network latency = 9
Average network latency = 52.3671
Maximum network latency = 296
Slowest packet = 34256
Minimum flit latency = 9
Average flit latency = 52.3833
Maximum flit latency = 296
Slowest flit = 34256
Minimum fragmentation = 0
Average fragmentation = 0
Maximum fragmentation = 0
Minimum injected packet rate = 0.04815 (at node 10)
Average injected packet rate = 0.0503
Maximum injected packet rate = 0.05345 (at node 14)
Minimum accepted packet rate = 0.0482 (at node 10)
Average accepted packet rate = 0.0502844
Maximum accepted packet rate = 0.0534 (at node 11)
Minimum injected flit rate = 0.04815 (at node 10)
Average injected flit rate = 0.0503
Maximum injected flit rate = 0.05345 (at node 14)
Minimum accepted flit rate = 0.0482 (at node 10)
Average accepted flit rate = 0.0502844
Maximum accepted flit rate = 0.0534 (at node 11)
Total number of injected packets = 16096
Total number of injected flits = 16096
Average injected packet length = 1
Total number of accepted packets = 16091
Total number of accepted flits = 16091
Average accepted packet length = 1
Total in-flight flits = 35 (35 measured)
===== Time: 60000 =====
Class 0:
Minimum packet latency = 8
Average packet latency = 50.84
Maximum packet latency = 321
Minimum network latency = 9
Average network latency = 51.84
Maximum network latency = 322
Slowest packet = 44640
Minimum flit latency = 9
Average flit latency = 51.8515
Maximum flit latency = 322
Slowest flit = 44640
Minimum fragmentation = 0
Average fragmentation = 0
Maximum fragmentation = 0
Minimum injected packet rate = 0.0482 (at node 10)
Average injected packet rate = 0.0501896
Maximum injected packet rate = 0.0528667 (at node 14)
Minimum accepted packet rate = 0.0482333 (at node 10)
Average accepted packet rate = 0.0501687
Maximum accepted packet rate = 0.0527667 (at node 11)
Minimum injected flit rate = 0.0482 (at node 10)
Average injected flit rate = 0.0501896
Maximum injected flit rate = 0.0528667 (at node 14)
Minimum accepted flit rate = 0.0482333 (at node 10)
Average accepted flit rate = 0.0501687
Maximum accepted flit rate = 0.0527667 (at node 11)
Total number of injected packets = 24091
Total number of injected flits = 24091
Average injected packet length = 1
Total number of accepted packets = 24081
Total number of accepted flits = 24081
Average accepted packet length = 1
Total in-flight flits = 40 (40 measured)
Draining remaining packets ...
Class 0:
Remaining flits: 47939 47956 47959 47961 47970 47977 47979 47980 47991 47997 [...] (33 flits)
Measured flits: 47939 47956 47959 47961 47970 47977 47979 47980 47991 47997 [...] (33 flits)
Class 0:
Remaining flits: 47956 47961 47979 47980 47997 47999 48005 48007 48009 48010 [...] (27 flits)
Measured flits: 47956 47961 47979 47980 47997 47999 48005 48007 48009 48010 [...] (27 flits)
Class 0:
Remaining flits: 47956 47979 47980 47997 48005 48009 48010 48014 48015 48016 [...] (20 flits)
Measured flits: 47956 47979 47980 47997 48005 48009 48010 48014 48015 48016 [...] (20 flits)
Class 0:
Remaining flits: 47956 47980 48005 48014 48015 48016 48021 48022 48023 48025 [...] (12 flits)
Measured flits: 47956 47980 48005 48014 48015 48016 48021 48022 48023 48025 [...] (12 flits)
Class 0:
Remaining flits: 47980 48005 48015 48016 48021 48022 48023 48029 48034 (9 flits)
Measured flits: 47980 48005 48015 48016 48021 48022 48023 48029 48034 (9 flits)
Class 0:
Remaining flits: 47980 48005 48015 48016 48021 48022 48023 48029 48034 (9 flits)
Measured flits: 47980 48005 48015 48016 48021 48022 48023 48029 48034 (9 flits)
Class 0:
Remaining flits: 47980 48016 48022 48023 48029 (5 flits)
Measured flits: 47980 48016 48022 48023 48029 (5 flits)
Class 0:
Remaining flits: 48022 48023 48029 (3 flits)
Measured flits: 48022 48023 48029 (3 flits)
Class 0:
Remaining flits: 48029 (1 flits)
Measured flits: 48029 (1 flits)
Class 0:
Remaining flits: (0 flits)
Measured flits: (0 flits)
Class 0:
Remaining flits: (0 flits)
Measured flits: (0 flits)
Class 0:
Remaining flits: (0 flits)
Measured flits: (0 flits)
Class 0:
Remaining flits: (0 flits)
Measured flits: (0 flits)
Class 0:
Remaining flits: (0 flits)
Measured flits: (0 flits)
Class 0:
Remaining flits: (0 flits)
Measured flits: (0 flits)
Class 0:
Remaining flits: (0 flits)
Measured flits: (0 flits)
Class 0:
Remaining flits: (0 flits)
Measured flits: (0 flits)
Class 0:
Remaining flits: (0 flits)
Measured flits: (0 flits)
Class 0:
Remaining flits: (0 flits)
Measured flits: (0 flits)
Class 0:
Remaining flits: (0 flits)
Measured flits: (0 flits)
Class 0:
Remaining flits: (0 flits)
Measured flits: (0 flits)
Class 0:
Remaining flits: (0 flits)
Measured flits: (0 flits)
Class 0:
Remaining flits: (0 flits)
Measured flits: (0 flits)
Class 0:
Remaining flits: (0 flits)
Measured flits: (0 flits)
Class 0:
Remaining flits: (0 flits)
Measured flits: (0 flits)
Class 0:
Remaining flits: (0 flits)
Measured flits: (0 flits)
Class 0:
Remaining flits: (0 flits)
Measured flits: (0 flits)
Class 0:
Remaining flits: (0 flits)
Measured flits: (0 flits)
Class 0:
Remaining flits: (0 flits)
Measured flits: (0 flits)
Class 0:
Remaining flits: (0 flits)
Measured flits: (0 flits)
Class 0:
Remaining flits: (0 flits)
Measured flits: (0 flits)
Class 0:
Remaining flits: (0 flits)
Measured flits: (0 flits)
Class 0:
Remaining flits: (0 flits)
Measured flits: (0 flits)
Class 0:
Remaining flits: (0 flits)
Measured flits: (0 flits)
Class 0:
Remaining flits: (0 flits)
Measured flits: (0 flits)
Class 0:
Remaining flits: (0 flits)
Measured flits: (0 flits)
Class 0:
Remaining flits: (0 flits)
Measured flits: (0 flits)
Class 0:
Remaining flits: (0 flits)
Measured flits: (0 flits)
Class 0:
Remaining flits: (0 flits)
Measured flits: (0 flits)
Class 0:
Remaining flits: (0 flits)
Measured flits: (0 flits)
Class 0:
Remaining flits: (0 flits)
Measured flits: (0 flits)
Class 0:
Remaining flits: (0 flits)
Measured flits: (0 flits)
Class 0:
Remaining flits: (0 flits)
Measured flits: (0 flits)
Class 0:
Remaining flits: (0 flits)
Measured flits: (0 flits)
Class 0:
Remaining flits: (0 flits)
Measured flits: (0 flits)
Class 0:
Remaining flits: (0 flits)
Measured flits: (0 flits)
Class 0:
Remaining flits: (0 flits)
Measured flits: (0 flits)
Class 0:
Remaining flits: (0 flits)
Measured flits: (0 flits)
Class 0:
Remaining flits: (0 flits)
Measured flits: (0 flits)
Class 0:
Remaining flits: (0 flits)
Measured flits: (0 flits)
Class 0:
Remaining flits: (0 flits)
Measured flits: (0 flits)
Class 0:
Remaining flits: (0 flits)
Measured flits: (0 flits)
Class 0:
Remaining flits: (0 flits)
Measured flits: (0 flits)
Class 0:
Remaining flits: (0 flits)
Measured flits: (0 flits)
Class 0:
Remaining flits: (0 flits)
Measured flits: (0 flits)
Class 0:
Remaining flits: (0 flits)
Measured flits: (0 flits)
Class 0:
Remaining flits: (0 flits)
Measured flits: (0 flits)
Class 0:
Remaining flits: (0 flits)
Measured flits: (0 flits)
Class 0:
Remaining flits: (0 flits)
Measured flits: (0 flits)
Class 0:
Remaining flits: (0 flits)
Measured flits: (0 flits)
Class 0:
Remaining flits: (0 flits)
Measured flits: (0 flits)
Class 0:
Remaining flits: (0 flits)
Measured flits: (0 flits)
Class 0:
Remaining flits: (0 flits)
Measured flits: (0 flits)
Class 0:
Remaining flits: (0 flits)
Measured flits: (0 flits)
Class 0:
Remaining flits: (0 flits)
Measured flits: (0 flits)
Class 0:
Remaining flits: (0 flits)
Measured flits: (0 flits)
Class 0:
Remaining flits: (0 flits)
Measured flits: (0 flits)
Class 0:
Remaining flits: (0 flits)
Measured flits: (0 flits)
Class 0:
Remaining flits: (0 flits)
Measured flits: (0 flits)
Class 0:
Remaining flits: (0 flits)
Measured flits: (0 flits)
Class 0:
Remaining flits: (0 flits)
Measured flits: (0 flits)
Class 0:
Remaining flits: (0 flits)
Measured flits: (0 flits)
Class 0:
Remaining flits: (0 flits)
Measured flits: (0 flits)
Class 0:
Remaining flits: (0 flits)
Measured flits: (0 flits)
Class 0:
Remaining flits: (0 flits)
Measured flits: (0 flits)
Class 0:
Remaining flits: (0 flits)
Measured flits: (0 flits)
Class 0:
Remaining flits: (0 flits)
Measured flits: (0 flits)
Class 0:
Remaining flits: (0 flits)
Measured flits: (0 flits)
Class 0:
Remaining flits: (0 flits)
Measured flits: (0 flits)
Class 0:
Remaining flits: (0 flits)
Measured flits: (0 flits)
Class 0:
Remaining flits: (0 flits)
Measured flits: (0 flits)
Class 0:
Remaining flits: (0 flits)
Measured flits: (0 flits)
Class 0:
Remaining flits: (0 flits)
Measured flits: (0 flits)
Class 0:
Remaining flits: (0 flits)
Measured flits: (0 flits)
Class 0:
Remaining flits: (0 flits)
Measured flits: (0 flits)
Class 0:
Remaining flits: (0 flits)
Measured flits: (0 flits)
Class 0:
Remaining flits: (0 flits)
Measured flits: (0 flits)
Class 0:
Remaining flits: (0 flits)
Measured flits: (0 flits)
Class 0:
Remaining flits: (0 flits)
Measured flits: (0 flits)
Class 0:
Remaining flits: (0 flits)
Measured flits: (0 flits)
Class 0:
Remaining flits: (0 flits)
Measured flits: (0 flits)
Class 0:
Remaining flits: (0 flits)
Measured flits: (0 flits)
Class 0:
Remaining flits: (0 flits)
Measured flits: (0 flits)
Class 0:
Remaining flits: (0 flits)
Measured flits: (0 flits)
Class 0:
Remaining flits: (0 flits)
Measured flits: (0 flits)
Class 0:
Remaining flits: (0 flits)
Measured flits: (0 flits)
Class 0:
Remaining flits: (0 flits)
Measured flits: (0 flits)
Class 0:
Remaining flits: (0 flits)
Measured flits: (0 flits)
Class 0:
Remaining flits: (0 flits)
Measured flits: (0 flits)
Class 0:
Remaining flits: (0 flits)
Measured flits: (0 flits)
Class 0:
Remaining flits: (0 flits)
Measured flits: (0 flits)
Time taken is 61000 cycles
====== Traffic class 0 ======

Total number of flits generated = 48037, changed lanes = 44932
Overall minimum packet latency = 8 (1 samples)
Overall average packet latency = 50.8712 (1 samples)
Overall maximum packet latency = 321 (1 samples)
Overall minimum network latency = 9 (1 samples)
Overall average network latency = 51.8712 (1 samples)
Overall maximum network latency = 322 (1 samples)
Overall minimum flit latency = 9 (1 samples)
Overall average flit latency = 51.8826 (1 samples)
Overall maximum flit latency = 322 (1 samples)
Overall minimum fragmentation = 0 (1 samples)
Overall average fragmentation = 0 (1 samples)
Overall maximum fragmentation = 0 (1 samples)
Overall minimum injected packet rate = 0.0482 (1 samples)
Overall average injected packet rate = 0.0501896 (1 samples)
Overall maximum injected packet rate = 0.0528667 (1 samples)
Overall minimum accepted packet rate = 0.0482333 (1 samples)
Overall average accepted packet rate = 0.0501687 (1 samples)
Overall maximum accepted packet rate = 0.0527667 (1 samples)
Overall minimum injected flit rate = 0.0482 (1 samples)
Overall average injected flit rate = 0.0501896 (1 samples)
Overall maximum injected flit rate = 0.0528667 (1 samples)
Overall minimum accepted flit rate = 0.0482333 (1 samples)
Overall average accepted flit rate = 0.0501687 (1 samples)
Overall maximum accepted flit rate = 0.0527667 (1 samples)
Overall average injected packet size = 1 (1 samples)
Overall average accepted packet size = 1 (1 samples)
Overall average hops = 3.50417 (1 samples)
Overall throughput of the network (flits/cycle) = 1.60123
Overall throughput of the network (packets/cycle) = 1.60123
Total run time 125.87
