make: Nothing to be done for `all'.
Master: Running timer....
Master: Running SRC....
BEGIN Configuration File: ./examples/bitrev
// Topology

topology = torus;
k = 4;
n = 2;

// Routing
routing_function = dim_order;

// Flow control
num_vcs     = 4;
vc_buf_size = 4;
wait_for_tail_credit = 0;

// Router architecture
vc_allocator = islip;
sw_allocator = islip;
alloc_iters  = 1;

credit_delay   = 1;
routing_delay  = 1;
vc_alloc_delay = 1;
sw_alloc_delay = 1;

input_speedup     = 1;
output_speedup    = 1;
internal_speedup  = 1.0;

vc_busy_when_full = 0;

// Traffic
traffic = uniform;
packet_size = 1;

// Simulation
sim_type = throughput;

injection_rate = 0.13;

END Configuration File: ./examples/bitrev
===== Time: 1000 =====
Class 0:
Minimum packet latency = 8
Average packet latency = 42.7492
Maximum packet latency = 132
Minimum network latency = 9
Average network latency = 43.7492
Maximum network latency = 133
Slowest packet = 50
Minimum flit latency = 9
Average flit latency = 43.7492
Maximum flit latency = 133
Slowest flit = 50
Minimum fragmentation = 0
Average fragmentation = 0
Maximum fragmentation = 0
Minimum injected packet rate = 0.109 (at node 9)
Average injected packet rate = 0.126812
Maximum injected packet rate = 0.136 (at node 2)
Minimum accepted packet rate = 0.11 (at node 13)
Average accepted packet rate = 0.122125
Maximum accepted packet rate = 0.135 (at node 1)
Minimum injected flit rate = 0.109 (at node 9)
Average injected flit rate = 0.126812
Maximum injected flit rate = 0.136 (at node 2)
Minimum accepted flit rate = 0.11 (at node 13)
Average accepted flit rate = 0.122125
Maximum accepted flit rate = 0.135 (at node 1)
Total number of injected packets = 2029
Total number of injected flits = 2029
Average injected packet length = 1
Total number of accepted packets = 1954
Total number of accepted flits = 1954
Average accepted packet length = 1
Total in-flight flits = 75 (0 measured)
===== Time: 2000 =====
Class 0:
Minimum packet latency = 8
Average packet latency = 43.0361
Maximum packet latency = 163
Minimum network latency = 9
Average network latency = 44.0361
Maximum network latency = 164
Slowest packet = 3469
Minimum flit latency = 9
Average flit latency = 44.0361
Maximum flit latency = 164
Slowest flit = 3469
Minimum fragmentation = 0
Average fragmentation = 0
Maximum fragmentation = 0
Minimum injected packet rate = 0.1125 (at node 7)
Average injected packet rate = 0.125594
Maximum injected packet rate = 0.132 (at node 13)
Minimum accepted packet rate = 0.1115 (at node 9)
Average accepted packet rate = 0.123063
Maximum accepted packet rate = 0.1325 (at node 8)
Minimum injected flit rate = 0.1125 (at node 7)
Average injected flit rate = 0.125594
Maximum injected flit rate = 0.132 (at node 13)
Minimum accepted flit rate = 0.1115 (at node 9)
Average accepted flit rate = 0.123063
Maximum accepted flit rate = 0.1325 (at node 8)
Total number of injected packets = 4019
Total number of injected flits = 4019
Average injected packet length = 1
Total number of accepted packets = 3938
Total number of accepted flits = 3938
Average accepted packet length = 1
Total in-flight flits = 81 (0 measured)
===== Time: 3000 =====
Class 0:
Minimum packet latency = 8
Average packet latency = 43.1854
Maximum packet latency = 115
Minimum network latency = 9
Average network latency = 44.1854
Maximum network latency = 116
Slowest packet = 4776
Minimum flit latency = 9
Average flit latency = 44.1854
Maximum flit latency = 116
Slowest flit = 4776
Minimum fragmentation = 0
Average fragmentation = 0
Maximum fragmentation = 0
Minimum injected packet rate = 0.117 (at node 0)
Average injected packet rate = 0.131562
Maximum injected packet rate = 0.145 (at node 6)
Minimum accepted packet rate = 0.112 (at node 4)
Average accepted packet rate = 0.129812
Maximum accepted packet rate = 0.145 (at node 7)
Minimum injected flit rate = 0.117 (at node 0)
Average injected flit rate = 0.131562
Maximum injected flit rate = 0.145 (at node 6)
Minimum accepted flit rate = 0.112 (at node 4)
Average accepted flit rate = 0.129812
Maximum accepted flit rate = 0.145 (at node 7)
Total number of injected packets = 2105
Total number of injected flits = 2105
Average injected packet length = 1
Total number of accepted packets = 2077
Total number of accepted flits = 2077
Average accepted packet length = 1
Total in-flight flits = 109 (0 measured)
===== Time: 4000 =====
Class 0:
Minimum packet latency = 8
Average packet latency = 43.6154
Maximum packet latency = 134
Minimum network latency = 9
Average network latency = 44.6154
Maximum network latency = 135
Slowest packet = 6582
Minimum flit latency = 9
Average flit latency = 45.0543
Maximum flit latency = 135
Slowest flit = 6582
Minimum fragmentation = 0
Average fragmentation = 0
Maximum fragmentation = 0
Minimum injected packet rate = 0.099 (at node 0)
Average injected packet rate = 0.130062
Maximum injected packet rate = 0.165 (at node 15)
Minimum accepted packet rate = 0.104 (at node 2)
Average accepted packet rate = 0.131125
Maximum accepted packet rate = 0.153 (at node 9)
Minimum injected flit rate = 0.099 (at node 0)
Average injected flit rate = 0.130062
Maximum injected flit rate = 0.165 (at node 15)
Minimum accepted flit rate = 0.104 (at node 2)
Average accepted flit rate = 0.131125
Maximum accepted flit rate = 0.153 (at node 9)
Total number of injected packets = 2081
Total number of injected flits = 2081
Average injected packet length = 1
Total number of accepted packets = 2098
Total number of accepted flits = 2098
Average accepted packet length = 1
Total in-flight flits = 92 (92 measured)
===== Time: 5000 =====
Class 0:
Minimum packet latency = 8
Average packet latency = 43.9936
Maximum packet latency = 134
Minimum network latency = 9
Average network latency = 44.9936
Maximum network latency = 135
Slowest packet = 6582
Minimum flit latency = 9
Average flit latency = 45.2059
Maximum flit latency = 135
Slowest flit = 6582
Minimum fragmentation = 0
Average fragmentation = 0
Maximum fragmentation = 0
Minimum injected packet rate = 0.1125 (at node 14)
Average injected packet rate = 0.128906
Maximum injected packet rate = 0.151 (at node 15)
Minimum accepted packet rate = 0.118 (at node 4)
Average accepted packet rate = 0.129469
Maximum accepted packet rate = 0.144 (at node 9)
Minimum injected flit rate = 0.1125 (at node 14)
Average injected flit rate = 0.128906
Maximum injected flit rate = 0.151 (at node 15)
Minimum accepted flit rate = 0.118 (at node 4)
Average accepted flit rate = 0.129469
Maximum accepted flit rate = 0.144 (at node 9)
Total number of injected packets = 4125
Total number of injected flits = 4125
Average injected packet length = 1
Total number of accepted packets = 4143
Total number of accepted flits = 4143
Average accepted packet length = 1
Total in-flight flits = 91 (91 measured)
===== Time: 6000 =====
Class 0:
Minimum packet latency = 8
Average packet latency = 44.4421
Maximum packet latency = 134
Minimum network latency = 9
Average network latency = 45.4421
Maximum network latency = 135
Slowest packet = 6582
Minimum flit latency = 9
Average flit latency = 45.5751
Maximum flit latency = 135
Slowest flit = 6582
Minimum fragmentation = 0
Average fragmentation = 0
Maximum fragmentation = 0
Minimum injected packet rate = 0.119333 (at node 14)
Average injected packet rate = 0.129646
Maximum injected packet rate = 0.147 (at node 15)
Minimum accepted packet rate = 0.116333 (at node 10)
Average accepted packet rate = 0.130083
Maximum accepted packet rate = 0.143 (at node 9)
Minimum injected flit rate = 0.119333 (at node 14)
Average injected flit rate = 0.129646
Maximum injected flit rate = 0.147 (at node 15)
Minimum accepted flit rate = 0.116333 (at node 10)
Average accepted flit rate = 0.130083
Maximum accepted flit rate = 0.143 (at node 9)
Total number of injected packets = 6223
Total number of injected flits = 6223
Average injected packet length = 1
Total number of accepted packets = 6244
Total number of accepted flits = 6244
Average accepted packet length = 1
Total in-flight flits = 88 (88 measured)
Draining remaining packets ...
Class 0:
Remaining flits: 12220 12222 12233 12242 12248 12253 12254 12257 12260 12262 [...] (68 flits)
Measured flits: 12220 12222 12233 12242 12248 12253 12254 12257 12260 12262 [...] (68 flits)
Class 0:
Remaining flits: 12248 12253 12260 12267 12270 12271 12274 12282 12285 12286 [...] (48 flits)
Measured flits: 12248 12253 12260 12267 12270 12271 12274 12282 12285 12286 [...] (48 flits)
Class 0:
Remaining flits: 12248 12270 12274 12282 12285 12289 12290 12295 12297 12299 [...] (28 flits)
Measured flits: 12248 12270 12274 12282 12285 12289 12290 12295 12297 12299 [...] (28 flits)
Class 0:
Remaining flits: 12274 12282 12285 12290 12295 12308 12312 12326 12328 12329 [...] (14 flits)
Measured flits: 12274 12282 12285 12290 12295 12308 12312 12326 12328 12329 [...] (14 flits)
Class 0:
Remaining flits: 12285 12290 12295 12312 12328 12329 12338 12339 12342 (9 flits)
Measured flits: 12285 12290 12295 12312 12328 12329 12338 12339 12342 (9 flits)
Class 0:
Remaining flits: 12329 12339 12342 (3 flits)
Measured flits: 12329 12339 12342 (3 flits)
Class 0:
Remaining flits: 12329 12339 12342 (3 flits)
Measured flits: 12329 12339 12342 (3 flits)
Class 0:
Remaining flits: 12329 12342 (2 flits)
Measured flits: 12329 12342 (2 flits)
Class 0:
Remaining flits: (0 flits)
Measured flits: (0 flits)
Class 0:
Remaining flits: (0 flits)
Measured flits: (0 flits)
Class 0:
Remaining flits: (0 flits)
Measured flits: (0 flits)
Class 0:
Remaining flits: (0 flits)
Measured flits: (0 flits)
Class 0:
Remaining flits: (0 flits)
Measured flits: (0 flits)
Class 0:
Remaining flits: (0 flits)
Measured flits: (0 flits)
Class 0:
Remaining flits: (0 flits)
Measured flits: (0 flits)
Class 0:
Remaining flits: (0 flits)
Measured flits: (0 flits)
Class 0:
Remaining flits: (0 flits)
Measured flits: (0 flits)
Class 0:
Remaining flits: (0 flits)
Measured flits: (0 flits)
Class 0:
Remaining flits: (0 flits)
Measured flits: (0 flits)
Class 0:
Remaining flits: (0 flits)
Measured flits: (0 flits)
Class 0:
Remaining flits: (0 flits)
Measured flits: (0 flits)
Class 0:
Remaining flits: (0 flits)
Measured flits: (0 flits)
Class 0:
Remaining flits: (0 flits)
Measured flits: (0 flits)
Class 0:
Remaining flits: (0 flits)
Measured flits: (0 flits)
Class 0:
Remaining flits: (0 flits)
Measured flits: (0 flits)
Class 0:
Remaining flits: (0 flits)
Measured flits: (0 flits)
Class 0:
Remaining flits: (0 flits)
Measured flits: (0 flits)
Class 0:
Remaining flits: (0 flits)
Measured flits: (0 flits)
Class 0:
Remaining flits: (0 flits)
Measured flits: (0 flits)
Class 0:
Remaining flits: (0 flits)
Measured flits: (0 flits)
Class 0:
Remaining flits: (0 flits)
Measured flits: (0 flits)
Class 0:
Remaining flits: (0 flits)
Measured flits: (0 flits)
Class 0:
Remaining flits: (0 flits)
Measured flits: (0 flits)
Class 0:
Remaining flits: (0 flits)
Measured flits: (0 flits)
Class 0:
Remaining flits: (0 flits)
Measured flits: (0 flits)
Class 0:
Remaining flits: (0 flits)
Measured flits: (0 flits)
Class 0:
Remaining flits: (0 flits)
Measured flits: (0 flits)
Class 0:
Remaining flits: (0 flits)
Measured flits: (0 flits)
Class 0:
Remaining flits: (0 flits)
Measured flits: (0 flits)
Class 0:
Remaining flits: (0 flits)
Measured flits: (0 flits)
Class 0:
Remaining flits: (0 flits)
Measured flits: (0 flits)
Class 0:
Remaining flits: (0 flits)
Measured flits: (0 flits)
Class 0:
Remaining flits: (0 flits)
Measured flits: (0 flits)
Class 0:
Remaining flits: (0 flits)
Measured flits: (0 flits)
Class 0:
Remaining flits: (0 flits)
Measured flits: (0 flits)
Class 0:
Remaining flits: (0 flits)
Measured flits: (0 flits)
Class 0:
Remaining flits: (0 flits)
Measured flits: (0 flits)
Class 0:
Remaining flits: (0 flits)
Measured flits: (0 flits)
Class 0:
Remaining flits: (0 flits)
Measured flits: (0 flits)
Class 0:
Remaining flits: (0 flits)
Measured flits: (0 flits)
Class 0:
Remaining flits: (0 flits)
Measured flits: (0 flits)
Class 0:
Remaining flits: (0 flits)
Measured flits: (0 flits)
Class 0:
Remaining flits: (0 flits)
Measured flits: (0 flits)
Class 0:
Remaining flits: (0 flits)
Measured flits: (0 flits)
Class 0:
Remaining flits: (0 flits)
Measured flits: (0 flits)
Class 0:
Remaining flits: (0 flits)
Measured flits: (0 flits)
Class 0:
Remaining flits: (0 flits)
Measured flits: (0 flits)
Class 0:
Remaining flits: (0 flits)
Measured flits: (0 flits)
Class 0:
Remaining flits: (0 flits)
Measured flits: (0 flits)
Class 0:
Remaining flits: (0 flits)
Measured flits: (0 flits)
Class 0:
Remaining flits: (0 flits)
Measured flits: (0 flits)
Class 0:
Remaining flits: (0 flits)
Measured flits: (0 flits)
Class 0:
Remaining flits: (0 flits)
Measured flits: (0 flits)
Class 0:
Remaining flits: (0 flits)
Measured flits: (0 flits)
Class 0:
Remaining flits: (0 flits)
Measured flits: (0 flits)
Class 0:
Remaining flits: (0 flits)
Measured flits: (0 flits)
Class 0:
Remaining flits: (0 flits)
Measured flits: (0 flits)
Class 0:
Remaining flits: (0 flits)
Measured flits: (0 flits)
Class 0:
Remaining flits: (0 flits)
Measured flits: (0 flits)
Class 0:
Remaining flits: (0 flits)
Measured flits: (0 flits)
Class 0:
Remaining flits: (0 flits)
Measured flits: (0 flits)
Class 0:
Remaining flits: (0 flits)
Measured flits: (0 flits)
Class 0:
Remaining flits: (0 flits)
Measured flits: (0 flits)
Class 0:
Remaining flits: (0 flits)
Measured flits: (0 flits)
Class 0:
Remaining flits: (0 flits)
Measured flits: (0 flits)
Class 0:
Remaining flits: (0 flits)
Measured flits: (0 flits)
Class 0:
Remaining flits: (0 flits)
Measured flits: (0 flits)
Class 0:
Remaining flits: (0 flits)
Measured flits: (0 flits)
Class 0:
Remaining flits: (0 flits)
Measured flits: (0 flits)
Class 0:
Remaining flits: (0 flits)
Measured flits: (0 flits)
Class 0:
Remaining flits: (0 flits)
Measured flits: (0 flits)
Class 0:
Remaining flits: (0 flits)
Measured flits: (0 flits)
Class 0:
Remaining flits: (0 flits)
Measured flits: (0 flits)
Class 0:
Remaining flits: (0 flits)
Measured flits: (0 flits)
Class 0:
Remaining flits: (0 flits)
Measured flits: (0 flits)
Class 0:
Remaining flits: (0 flits)
Measured flits: (0 flits)
Class 0:
Remaining flits: (0 flits)
Measured flits: (0 flits)
Class 0:
Remaining flits: (0 flits)
Measured flits: (0 flits)
Class 0:
Remaining flits: (0 flits)
Measured flits: (0 flits)
Class 0:
Remaining flits: (0 flits)
Measured flits: (0 flits)
Class 0:
Remaining flits: (0 flits)
Measured flits: (0 flits)
Class 0:
Remaining flits: (0 flits)
Measured flits: (0 flits)
Class 0:
Remaining flits: (0 flits)
Measured flits: (0 flits)
Class 0:
Remaining flits: (0 flits)
Measured flits: (0 flits)
Class 0:
Remaining flits: (0 flits)
Measured flits: (0 flits)
Class 0:
Remaining flits: (0 flits)
Measured flits: (0 flits)
Class 0:
Remaining flits: (0 flits)
Measured flits: (0 flits)
Class 0:
Remaining flits: (0 flits)
Measured flits: (0 flits)
Class 0:
Remaining flits: (0 flits)
Measured flits: (0 flits)
Class 0:
Remaining flits: (0 flits)
Measured flits: (0 flits)
Class 0:
Remaining flits: (0 flits)
Measured flits: (0 flits)
Time taken is 7000 cycles
====== Traffic class 0 ======

Total number of flits generated = 12347, changed lanes = 11971
Overall minimum packet latency = 8 (1 samples)
Overall average packet latency = 44.5486 (1 samples)
Overall maximum packet latency = 134 (1 samples)
Overall minimum network latency = 9 (1 samples)
Overall average network latency = 45.5486 (1 samples)
Overall maximum network latency = 135 (1 samples)
Overall minimum flit latency = 9 (1 samples)
Overall average flit latency = 45.678 (1 samples)
Overall maximum flit latency = 135 (1 samples)
Overall minimum fragmentation = 0 (1 samples)
Overall average fragmentation = 0 (1 samples)
Overall maximum fragmentation = 0 (1 samples)
Overall minimum injected packet rate = 0.119333 (1 samples)
Overall average injected packet rate = 0.129646 (1 samples)
Overall maximum injected packet rate = 0.147 (1 samples)
Overall minimum accepted packet rate = 0.116333 (1 samples)
Overall average accepted packet rate = 0.130083 (1 samples)
Overall maximum accepted packet rate = 0.143 (1 samples)
Overall minimum injected flit rate = 0.119333 (1 samples)
Overall average injected flit rate = 0.129646 (1 samples)
Overall maximum injected flit rate = 0.147 (1 samples)
Overall minimum accepted flit rate = 0.116333 (1 samples)
Overall average accepted flit rate = 0.130083 (1 samples)
Overall maximum accepted flit rate = 0.143 (1 samples)
Overall average injected packet size = 1 (1 samples)
Overall average accepted packet size = 1 (1 samples)
Overall average hops = 3.00193 (1 samples)
Overall throughput of the network (flits/cycle) = 4.11567
Overall throughput of the network (packets/cycle) = 4.11567
Total run time 36.8922
