make: Nothing to be done for `all'.
Master: Running timer....
Master: Running SRC....
BEGIN Configuration File: ./examples/bitrev
// Topology

topology = torus;
k = 4;
n = 2;

// Routing
routing_function = dim_order;

// Flow control
num_vcs     = 4;
vc_buf_size = 4;
wait_for_tail_credit = 0;

// Router architecture
vc_allocator = islip;
sw_allocator = islip;
alloc_iters  = 1;

credit_delay   = 1;
routing_delay  = 1;
vc_alloc_delay = 1;
sw_alloc_delay = 1;

input_speedup     = 1;
output_speedup    = 1;
internal_speedup  = 1.0;

vc_busy_when_full = 0;

// Traffic
traffic = uniform;
packet_size = 1;

// Simulation
sim_type = throughput;

injection_rate = 0.11;

END Configuration File: ./examples/bitrev
===== Time: 1000 =====
Class 0:
Minimum packet latency = 8
Average packet latency = 38.7668
Maximum packet latency = 148
Minimum network latency = 9
Average network latency = 39.7668
Maximum network latency = 149
Slowest packet = 934
Minimum flit latency = 9
Average flit latency = 39.7668
Maximum flit latency = 149
Slowest flit = 934
Minimum fragmentation = 0
Average fragmentation = 0
Maximum fragmentation = 0
Minimum injected packet rate = 0.092 (at node 8)
Average injected packet rate = 0.10675
Maximum injected packet rate = 0.123 (at node 10)
Minimum accepted packet rate = 0.09 (at node 11)
Average accepted packet rate = 0.102938
Maximum accepted packet rate = 0.119 (at node 10)
Minimum injected flit rate = 0.092 (at node 8)
Average injected flit rate = 0.10675
Maximum injected flit rate = 0.123 (at node 10)
Minimum accepted flit rate = 0.09 (at node 11)
Average accepted flit rate = 0.102938
Maximum accepted flit rate = 0.119 (at node 10)
Total number of injected packets = 1708
Total number of injected flits = 1708
Average injected packet length = 1
Total number of accepted packets = 1647
Total number of accepted flits = 1647
Average accepted packet length = 1
Total in-flight flits = 61 (0 measured)
===== Time: 2000 =====
Class 0:
Minimum packet latency = 8
Average packet latency = 38.6504
Maximum packet latency = 148
Minimum network latency = 9
Average network latency = 39.6504
Maximum network latency = 149
Slowest packet = 934
Minimum flit latency = 9
Average flit latency = 39.6504
Maximum flit latency = 149
Slowest flit = 934
Minimum fragmentation = 0
Average fragmentation = 0
Maximum fragmentation = 0
Minimum injected packet rate = 0.0955 (at node 7)
Average injected packet rate = 0.104938
Maximum injected packet rate = 0.112 (at node 13)
Minimum accepted packet rate = 0.0925 (at node 4)
Average accepted packet rate = 0.102719
Maximum accepted packet rate = 0.114 (at node 0)
Minimum injected flit rate = 0.0955 (at node 7)
Average injected flit rate = 0.104938
Maximum injected flit rate = 0.112 (at node 13)
Minimum accepted flit rate = 0.0925 (at node 4)
Average accepted flit rate = 0.102719
Maximum accepted flit rate = 0.114 (at node 0)
Total number of injected packets = 3358
Total number of injected flits = 3358
Average injected packet length = 1
Total number of accepted packets = 3287
Total number of accepted flits = 3287
Average accepted packet length = 1
Total in-flight flits = 71 (0 measured)
===== Time: 3000 =====
Class 0:
Minimum packet latency = 8
Average packet latency = 39.4745
Maximum packet latency = 177
Minimum network latency = 9
Average network latency = 40.4745
Maximum network latency = 178
Slowest packet = 4547
Minimum flit latency = 9
Average flit latency = 40.4745
Maximum flit latency = 178
Slowest flit = 4547
Minimum fragmentation = 0
Average fragmentation = 0
Maximum fragmentation = 0
Minimum injected packet rate = 0.1 (at node 0)
Average injected packet rate = 0.111625
Maximum injected packet rate = 0.124 (at node 6)
Minimum accepted packet rate = 0.094 (at node 15)
Average accepted packet rate = 0.111562
Maximum accepted packet rate = 0.132 (at node 2)
Minimum injected flit rate = 0.1 (at node 0)
Average injected flit rate = 0.111625
Maximum injected flit rate = 0.124 (at node 6)
Minimum accepted flit rate = 0.094 (at node 15)
Average accepted flit rate = 0.111562
Maximum accepted flit rate = 0.132 (at node 2)
Total number of injected packets = 1786
Total number of injected flits = 1786
Average injected packet length = 1
Total number of accepted packets = 1785
Total number of accepted flits = 1785
Average accepted packet length = 1
Total in-flight flits = 72 (0 measured)
===== Time: 4000 =====
Class 0:
Minimum packet latency = 8
Average packet latency = 39.2238
Maximum packet latency = 187
Minimum network latency = 9
Average network latency = 40.2238
Maximum network latency = 188
Slowest packet = 5327
Minimum flit latency = 9
Average flit latency = 40.3695
Maximum flit latency = 188
Slowest flit = 5327
Minimum fragmentation = 0
Average fragmentation = 0
Maximum fragmentation = 0
Minimum injected packet rate = 0.081 (at node 0)
Average injected packet rate = 0.110625
Maximum injected packet rate = 0.14 (at node 15)
Minimum accepted packet rate = 0.081 (at node 4)
Average accepted packet rate = 0.110625
Maximum accepted packet rate = 0.124 (at node 7)
Minimum injected flit rate = 0.081 (at node 0)
Average injected flit rate = 0.110625
Maximum injected flit rate = 0.14 (at node 15)
Minimum accepted flit rate = 0.081 (at node 4)
Average accepted flit rate = 0.110625
Maximum accepted flit rate = 0.124 (at node 7)
Total number of injected packets = 1770
Total number of injected flits = 1770
Average injected packet length = 1
Total number of accepted packets = 1770
Total number of accepted flits = 1770
Average accepted packet length = 1
Total in-flight flits = 72 (72 measured)
===== Time: 5000 =====
Class 0:
Minimum packet latency = 8
Average packet latency = 39.6509
Maximum packet latency = 201
Minimum network latency = 9
Average network latency = 40.6509
Maximum network latency = 202
Slowest packet = 7057
Minimum flit latency = 9
Average flit latency = 40.716
Maximum flit latency = 202
Slowest flit = 7057
Minimum fragmentation = 0
Average fragmentation = 0
Maximum fragmentation = 0
Minimum injected packet rate = 0.096 (at node 14)
Average injected packet rate = 0.109313
Maximum injected packet rate = 0.132 (at node 15)
Minimum accepted packet rate = 0.088 (at node 4)
Average accepted packet rate = 0.109031
Maximum accepted packet rate = 0.1225 (at node 7)
Minimum injected flit rate = 0.096 (at node 14)
Average injected flit rate = 0.109313
Maximum injected flit rate = 0.132 (at node 15)
Minimum accepted flit rate = 0.088 (at node 4)
Average accepted flit rate = 0.109031
Maximum accepted flit rate = 0.1225 (at node 7)
Total number of injected packets = 3498
Total number of injected flits = 3498
Average injected packet length = 1
Total number of accepted packets = 3489
Total number of accepted flits = 3489
Average accepted packet length = 1
Total in-flight flits = 81 (81 measured)
===== Time: 6000 =====
Class 0:
Minimum packet latency = 8
Average packet latency = 39.817
Maximum packet latency = 201
Minimum network latency = 9
Average network latency = 40.817
Maximum network latency = 202
Slowest packet = 7057
Minimum flit latency = 9
Average flit latency = 40.8579
Maximum flit latency = 202
Slowest flit = 7057
Minimum fragmentation = 0
Average fragmentation = 0
Maximum fragmentation = 0
Minimum injected packet rate = 0.101333 (at node 0)
Average injected packet rate = 0.109417
Maximum injected packet rate = 0.126 (at node 15)
Minimum accepted packet rate = 0.0953333 (at node 4)
Average accepted packet rate = 0.109521
Maximum accepted packet rate = 0.120333 (at node 9)
Minimum injected flit rate = 0.101333 (at node 0)
Average injected flit rate = 0.109417
Maximum injected flit rate = 0.126 (at node 15)
Minimum accepted flit rate = 0.0953333 (at node 4)
Average accepted flit rate = 0.109521
Maximum accepted flit rate = 0.120333 (at node 9)
Total number of injected packets = 5252
Total number of injected flits = 5252
Average injected packet length = 1
Total number of accepted packets = 5257
Total number of accepted flits = 5257
Average accepted packet length = 1
Total in-flight flits = 67 (67 measured)
Draining remaining packets ...
Class 0:
Remaining flits: 10324 10326 10332 10333 10335 10343 10345 10346 10347 10348 [...] (50 flits)
Measured flits: 10324 10326 10332 10333 10335 10343 10345 10346 10347 10348 [...] (50 flits)
Class 0:
Remaining flits: 10345 10347 10348 10350 10352 10361 10362 10363 10364 10365 [...] (35 flits)
Measured flits: 10345 10347 10348 10350 10352 10361 10362 10363 10364 10365 [...] (35 flits)
Class 0:
Remaining flits: 10347 10348 10352 10364 10365 10366 10368 10369 10373 10375 [...] (21 flits)
Measured flits: 10347 10348 10352 10364 10365 10366 10368 10369 10373 10375 [...] (21 flits)
Class 0:
Remaining flits: 10347 10348 10365 10377 10379 10380 10386 10387 10390 10391 (10 flits)
Measured flits: 10347 10348 10365 10377 10379 10380 10386 10387 10390 10391 (10 flits)
Class 0:
Remaining flits: 10380 10391 (2 flits)
Measured flits: 10380 10391 (2 flits)
Class 0:
Remaining flits: 10391 (1 flits)
Measured flits: 10391 (1 flits)
Class 0:
Remaining flits: 10391 (1 flits)
Measured flits: 10391 (1 flits)
Class 0:
Remaining flits: 10391 (1 flits)
Measured flits: 10391 (1 flits)
Class 0:
Remaining flits: 10391 (1 flits)
Measured flits: 10391 (1 flits)
Class 0:
Remaining flits: 10391 (1 flits)
Measured flits: 10391 (1 flits)
Class 0:
Remaining flits: 10391 (1 flits)
Measured flits: 10391 (1 flits)
Class 0:
Remaining flits: 10391 (1 flits)
Measured flits: 10391 (1 flits)
Class 0:
Remaining flits: 10391 (1 flits)
Measured flits: 10391 (1 flits)
Class 0:
Remaining flits: 10391 (1 flits)
Measured flits: 10391 (1 flits)
Class 0:
Remaining flits: 10391 (1 flits)
Measured flits: 10391 (1 flits)
Class 0:
Remaining flits: 10391 (1 flits)
Measured flits: 10391 (1 flits)
Class 0:
Remaining flits: 10391 (1 flits)
Measured flits: 10391 (1 flits)
Class 0:
Remaining flits: 10391 (1 flits)
Measured flits: 10391 (1 flits)
Class 0:
Remaining flits: 10391 (1 flits)
Measured flits: 10391 (1 flits)
Class 0:
Remaining flits: 10391 (1 flits)
Measured flits: 10391 (1 flits)
Class 0:
Remaining flits: 10391 (1 flits)
Measured flits: 10391 (1 flits)
Class 0:
Remaining flits: 10391 (1 flits)
Measured flits: 10391 (1 flits)
Class 0:
Remaining flits: 10391 (1 flits)
Measured flits: 10391 (1 flits)
Class 0:
Remaining flits: 10391 (1 flits)
Measured flits: 10391 (1 flits)
Class 0:
Remaining flits: 10391 (1 flits)
Measured flits: 10391 (1 flits)
Class 0:
Remaining flits: 10391 (1 flits)
Measured flits: 10391 (1 flits)
Class 0:
Remaining flits: 10391 (1 flits)
Measured flits: 10391 (1 flits)
Class 0:
Remaining flits: 10391 (1 flits)
Measured flits: 10391 (1 flits)
Class 0:
Remaining flits: 10391 (1 flits)
Measured flits: 10391 (1 flits)
Class 0:
Remaining flits: 10391 (1 flits)
Measured flits: 10391 (1 flits)
Class 0:
Remaining flits: 10391 (1 flits)
Measured flits: 10391 (1 flits)
Class 0:
Remaining flits: 10391 (1 flits)
Measured flits: 10391 (1 flits)
Class 0:
Remaining flits: 10391 (1 flits)
Measured flits: 10391 (1 flits)
Class 0:
Remaining flits: 10391 (1 flits)
Measured flits: 10391 (1 flits)
Class 0:
Remaining flits: 10391 (1 flits)
Measured flits: 10391 (1 flits)
Class 0:
Remaining flits: 10391 (1 flits)
Measured flits: 10391 (1 flits)
Class 0:
Remaining flits: 10391 (1 flits)
Measured flits: 10391 (1 flits)
Class 0:
Remaining flits: 10391 (1 flits)
Measured flits: 10391 (1 flits)
Class 0:
Remaining flits: 10391 (1 flits)
Measured flits: 10391 (1 flits)
Class 0:
Remaining flits: 10391 (1 flits)
Measured flits: 10391 (1 flits)
Class 0:
Remaining flits: 10391 (1 flits)
Measured flits: 10391 (1 flits)
Class 0:
Remaining flits: 10391 (1 flits)
Measured flits: 10391 (1 flits)
Class 0:
Remaining flits: 10391 (1 flits)
Measured flits: 10391 (1 flits)
Class 0:
Remaining flits: 10391 (1 flits)
Measured flits: 10391 (1 flits)
Class 0:
Remaining flits: 10391 (1 flits)
Measured flits: 10391 (1 flits)
Class 0:
Remaining flits: 10391 (1 flits)
Measured flits: 10391 (1 flits)
Class 0:
Remaining flits: 10391 (1 flits)
Measured flits: 10391 (1 flits)
Class 0:
Remaining flits: 10391 (1 flits)
Measured flits: 10391 (1 flits)
Class 0:
Remaining flits: 10391 (1 flits)
Measured flits: 10391 (1 flits)
Class 0:
Remaining flits: 10391 (1 flits)
Measured flits: 10391 (1 flits)
Class 0:
Remaining flits: 10391 (1 flits)
Measured flits: 10391 (1 flits)
Class 0:
Remaining flits: 10391 (1 flits)
Measured flits: 10391 (1 flits)
Class 0:
Remaining flits: 10391 (1 flits)
Measured flits: 10391 (1 flits)
Class 0:
Remaining flits: 10391 (1 flits)
Measured flits: 10391 (1 flits)
Class 0:
Remaining flits: 10391 (1 flits)
Measured flits: 10391 (1 flits)
Class 0:
Remaining flits: 10391 (1 flits)
Measured flits: 10391 (1 flits)
Class 0:
Remaining flits: 10391 (1 flits)
Measured flits: 10391 (1 flits)
Class 0:
Remaining flits: 10391 (1 flits)
Measured flits: 10391 (1 flits)
Class 0:
Remaining flits: 10391 (1 flits)
Measured flits: 10391 (1 flits)
Class 0:
Remaining flits: 10391 (1 flits)
Measured flits: 10391 (1 flits)
Class 0:
Remaining flits: 10391 (1 flits)
Measured flits: 10391 (1 flits)
Class 0:
Remaining flits: 10391 (1 flits)
Measured flits: 10391 (1 flits)
Class 0:
Remaining flits: 10391 (1 flits)
Measured flits: 10391 (1 flits)
Class 0:
Remaining flits: 10391 (1 flits)
Measured flits: 10391 (1 flits)
Class 0:
Remaining flits: 10391 (1 flits)
Measured flits: 10391 (1 flits)
Class 0:
Remaining flits: 10391 (1 flits)
Measured flits: 10391 (1 flits)
Class 0:
Remaining flits: 10391 (1 flits)
Measured flits: 10391 (1 flits)
Class 0:
Remaining flits: 10391 (1 flits)
Measured flits: 10391 (1 flits)
Class 0:
Remaining flits: 10391 (1 flits)
Measured flits: 10391 (1 flits)
Class 0:
Remaining flits: 10391 (1 flits)
Measured flits: 10391 (1 flits)
Class 0:
Remaining flits: 10391 (1 flits)
Measured flits: 10391 (1 flits)
Class 0:
Remaining flits: 10391 (1 flits)
Measured flits: 10391 (1 flits)
Class 0:
Remaining flits: 10391 (1 flits)
Measured flits: 10391 (1 flits)
Class 0:
Remaining flits: 10391 (1 flits)
Measured flits: 10391 (1 flits)
Class 0:
Remaining flits: 10391 (1 flits)
Measured flits: 10391 (1 flits)
Class 0:
Remaining flits: 10391 (1 flits)
Measured flits: 10391 (1 flits)
Class 0:
Remaining flits: 10391 (1 flits)
Measured flits: 10391 (1 flits)
Class 0:
Remaining flits: 10391 (1 flits)
Measured flits: 10391 (1 flits)
Class 0:
Remaining flits: 10391 (1 flits)
Measured flits: 10391 (1 flits)
Class 0:
Remaining flits: 10391 (1 flits)
Measured flits: 10391 (1 flits)
Class 0:
Remaining flits: 10391 (1 flits)
Measured flits: 10391 (1 flits)
Class 0:
Remaining flits: 10391 (1 flits)
Measured flits: 10391 (1 flits)
Class 0:
Remaining flits: 10391 (1 flits)
Measured flits: 10391 (1 flits)
Class 0:
Remaining flits: 10391 (1 flits)
Measured flits: 10391 (1 flits)
Class 0:
Remaining flits: 10391 (1 flits)
Measured flits: 10391 (1 flits)
Class 0:
Remaining flits: 10391 (1 flits)
Measured flits: 10391 (1 flits)
Class 0:
Remaining flits: 10391 (1 flits)
Measured flits: 10391 (1 flits)
Class 0:
Remaining flits: 10391 (1 flits)
Measured flits: 10391 (1 flits)
Class 0:
Remaining flits: 10391 (1 flits)
Measured flits: 10391 (1 flits)
Class 0:
Remaining flits: 10391 (1 flits)
Measured flits: 10391 (1 flits)
Class 0:
Remaining flits: 10391 (1 flits)
Measured flits: 10391 (1 flits)
Class 0:
Remaining flits: 10391 (1 flits)
Measured flits: 10391 (1 flits)
Class 0:
Remaining flits: 10391 (1 flits)
Measured flits: 10391 (1 flits)
Class 0:
Remaining flits: 10391 (1 flits)
Measured flits: 10391 (1 flits)
Class 0:
Remaining flits: 10391 (1 flits)
Measured flits: 10391 (1 flits)
Class 0:
Remaining flits: 10391 (1 flits)
Measured flits: 10391 (1 flits)
Class 0:
Remaining flits: 10391 (1 flits)
Measured flits: 10391 (1 flits)
Class 0:
Remaining flits: 10391 (1 flits)
Measured flits: 10391 (1 flits)
Class 0:
Remaining flits: 10391 (1 flits)
Measured flits: 10391 (1 flits)
Class 0:
Remaining flits: 10391 (1 flits)
Measured flits: 10391 (1 flits)
Class 0:
Remaining flits: 10391 (1 flits)
Measured flits: 10391 (1 flits)
Time taken is 7000 cycles
====== Traffic class 0 ======

Total number of flits generated = 10396, changed lanes = 9988
Overall minimum packet latency = 8 (1 samples)
Overall average packet latency = 39.8928 (1 samples)
Overall maximum packet latency = 201 (1 samples)
Overall minimum network latency = 9 (1 samples)
Overall average network latency = 40.8928 (1 samples)
Overall maximum network latency = 202 (1 samples)
Overall minimum flit latency = 9 (1 samples)
Overall average flit latency = 40.9322 (1 samples)
Overall maximum flit latency = 202 (1 samples)
Overall minimum fragmentation = 0 (1 samples)
Overall average fragmentation = 0 (1 samples)
Overall maximum fragmentation = 0 (1 samples)
Overall minimum injected packet rate = 0.101333 (1 samples)
Overall average injected packet rate = 0.109417 (1 samples)
Overall maximum injected packet rate = 0.126 (1 samples)
Overall minimum accepted packet rate = 0.0953333 (1 samples)
Overall average accepted packet rate = 0.109521 (1 samples)
Overall maximum accepted packet rate = 0.120333 (1 samples)
Overall minimum injected flit rate = 0.101333 (1 samples)
Overall average injected flit rate = 0.109417 (1 samples)
Overall maximum injected flit rate = 0.126 (1 samples)
Overall minimum accepted flit rate = 0.0953333 (1 samples)
Overall average accepted flit rate = 0.109521 (1 samples)
Overall maximum accepted flit rate = 0.120333 (1 samples)
Overall average injected packet size = 1 (1 samples)
Overall average accepted packet size = 1 (1 samples)
Overall average hops = 2.99257 (1 samples)
Overall throughput of the network (flits/cycle) = 3.465
Overall throughput of the network (packets/cycle) = 3.465
Total run time 19.6986
