make: Nothing to be done for `all'.
Master: Running timer....
Master: Running SRC....
BEGIN Configuration File: ./examples/bitrev
// Topology

topology = torus;
k = 4;
n = 2;

// Routing
routing_function = dim_order;

// Flow control
num_vcs     = 4;
vc_buf_size = 4;
wait_for_tail_credit = 0;

// Router architecture
vc_allocator = islip;
sw_allocator = islip;
alloc_iters  = 1;

credit_delay   = 1;
routing_delay  = 1;
vc_alloc_delay = 1;
sw_alloc_delay = 1;

input_speedup     = 1;
output_speedup    = 1;
internal_speedup  = 1.0;

vc_busy_when_full = 0;

// Traffic
traffic = uniform;
packet_size = 1;

// Simulation
sim_type = throughput;

injection_rate = 0.09;

END Configuration File: ./examples/bitrev
===== Time: 1000 =====
Class 0:
Minimum packet latency = 8
Average packet latency = 36.7658
Maximum packet latency = 112
Minimum network latency = 9
Average network latency = 37.7658
Maximum network latency = 113
Slowest packet = 343
Minimum flit latency = 9
Average flit latency = 37.7658
Maximum flit latency = 113
Slowest flit = 343
Minimum fragmentation = 0
Average fragmentation = 0
Maximum fragmentation = 0
Minimum injected packet rate = 0.074 (at node 8)
Average injected packet rate = 0.085875
Maximum injected packet rate = 0.097 (at node 4)
Minimum accepted packet rate = 0.073 (at node 11)
Average accepted packet rate = 0.08325
Maximum accepted packet rate = 0.095 (at node 8)
Minimum injected flit rate = 0.074 (at node 8)
Average injected flit rate = 0.085875
Maximum injected flit rate = 0.097 (at node 4)
Minimum accepted flit rate = 0.073 (at node 11)
Average accepted flit rate = 0.08325
Maximum accepted flit rate = 0.095 (at node 8)
Total number of injected packets = 1374
Total number of injected flits = 1374
Average injected packet length = 1
Total number of accepted packets = 1332
Total number of accepted flits = 1332
Average accepted packet length = 1
Total in-flight flits = 42 (0 measured)
===== Time: 2000 =====
Class 0:
Minimum packet latency = 8
Average packet latency = 36.6654
Maximum packet latency = 112
Minimum network latency = 9
Average network latency = 37.6654
Maximum network latency = 113
Slowest packet = 343
Minimum flit latency = 9
Average flit latency = 37.6654
Maximum flit latency = 113
Slowest flit = 343
Minimum fragmentation = 0
Average fragmentation = 0
Maximum fragmentation = 0
Minimum injected packet rate = 0.0765 (at node 7)
Average injected packet rate = 0.0856563
Maximum injected packet rate = 0.0945 (at node 4)
Minimum accepted packet rate = 0.076 (at node 4)
Average accepted packet rate = 0.0840625
Maximum accepted packet rate = 0.0965 (at node 8)
Minimum injected flit rate = 0.0765 (at node 7)
Average injected flit rate = 0.0856563
Maximum injected flit rate = 0.0945 (at node 4)
Minimum accepted flit rate = 0.076 (at node 4)
Average accepted flit rate = 0.0840625
Maximum accepted flit rate = 0.0965 (at node 8)
Total number of injected packets = 2741
Total number of injected flits = 2741
Average injected packet length = 1
Total number of accepted packets = 2690
Total number of accepted flits = 2690
Average accepted packet length = 1
Total in-flight flits = 51 (0 measured)
===== Time: 3000 =====
Class 0:
Minimum packet latency = 8
Average packet latency = 37.3576
Maximum packet latency = 135
Minimum network latency = 9
Average network latency = 38.3576
Maximum network latency = 136
Slowest packet = 3153
Minimum flit latency = 9
Average flit latency = 38.3576
Maximum flit latency = 136
Slowest flit = 3153
Minimum fragmentation = 0
Average fragmentation = 0
Maximum fragmentation = 0
Minimum injected packet rate = 0.084 (at node 0)
Average injected packet rate = 0.092375
Maximum injected packet rate = 0.105 (at node 6)
Minimum accepted packet rate = 0.081 (at node 4)
Average accepted packet rate = 0.09175
Maximum accepted packet rate = 0.11 (at node 12)
Minimum injected flit rate = 0.084 (at node 0)
Average injected flit rate = 0.092375
Maximum injected flit rate = 0.105 (at node 6)
Minimum accepted flit rate = 0.081 (at node 4)
Average accepted flit rate = 0.09175
Maximum accepted flit rate = 0.11 (at node 12)
Total number of injected packets = 1478
Total number of injected flits = 1478
Average injected packet length = 1
Total number of accepted packets = 1468
Total number of accepted flits = 1468
Average accepted packet length = 1
Total in-flight flits = 61 (0 measured)
===== Time: 4000 =====
Class 0:
Minimum packet latency = 8
Average packet latency = 37.1309
Maximum packet latency = 105
Minimum network latency = 9
Average network latency = 38.1309
Maximum network latency = 106
Slowest packet = 5125
Minimum flit latency = 9
Average flit latency = 38.4157
Maximum flit latency = 106
Slowest flit = 5125
Minimum fragmentation = 0
Average fragmentation = 0
Maximum fragmentation = 0
Minimum injected packet rate = 0.068 (at node 0)
Average injected packet rate = 0.0895
Maximum injected packet rate = 0.108 (at node 15)
Minimum accepted packet rate = 0.074 (at node 3)
Average accepted packet rate = 0.08975
Maximum accepted packet rate = 0.109 (at node 6)
Minimum injected flit rate = 0.068 (at node 0)
Average injected flit rate = 0.0895
Maximum injected flit rate = 0.108 (at node 15)
Minimum accepted flit rate = 0.074 (at node 3)
Average accepted flit rate = 0.08975
Maximum accepted flit rate = 0.109 (at node 6)
Total number of injected packets = 1432
Total number of injected flits = 1432
Average injected packet length = 1
Total number of accepted packets = 1436
Total number of accepted flits = 1436
Average accepted packet length = 1
Total in-flight flits = 57 (57 measured)
===== Time: 5000 =====
Class 0:
Minimum packet latency = 8
Average packet latency = 37.2398
Maximum packet latency = 105
Minimum network latency = 9
Average network latency = 38.2398
Maximum network latency = 106
Slowest packet = 5125
Minimum flit latency = 9
Average flit latency = 38.3816
Maximum flit latency = 106
Slowest flit = 5125
Minimum fragmentation = 0
Average fragmentation = 0
Maximum fragmentation = 0
Minimum injected packet rate = 0.0785 (at node 3)
Average injected packet rate = 0.0887813
Maximum injected packet rate = 0.1055 (at node 15)
Minimum accepted packet rate = 0.074 (at node 4)
Average accepted packet rate = 0.0886875
Maximum accepted packet rate = 0.1035 (at node 7)
Minimum injected flit rate = 0.0785 (at node 3)
Average injected flit rate = 0.0887813
Maximum injected flit rate = 0.1055 (at node 15)
Minimum accepted flit rate = 0.074 (at node 4)
Average accepted flit rate = 0.0886875
Maximum accepted flit rate = 0.1035 (at node 7)
Total number of injected packets = 2841
Total number of injected flits = 2841
Average injected packet length = 1
Total number of accepted packets = 2838
Total number of accepted flits = 2838
Average accepted packet length = 1
Total in-flight flits = 64 (64 measured)
===== Time: 6000 =====
Class 0:
Minimum packet latency = 8
Average packet latency = 37.2294
Maximum packet latency = 105
Minimum network latency = 9
Average network latency = 38.2294
Maximum network latency = 106
Slowest packet = 5125
Minimum flit latency = 9
Average flit latency = 38.3233
Maximum flit latency = 106
Slowest flit = 5125
Minimum fragmentation = 0
Average fragmentation = 0
Maximum fragmentation = 0
Minimum injected packet rate = 0.0836667 (at node 3)
Average injected packet rate = 0.0892292
Maximum injected packet rate = 0.104 (at node 15)
Minimum accepted packet rate = 0.0753333 (at node 4)
Average accepted packet rate = 0.0894375
Maximum accepted packet rate = 0.103 (at node 7)
Minimum injected flit rate = 0.0836667 (at node 3)
Average injected flit rate = 0.0892292
Maximum injected flit rate = 0.104 (at node 15)
Minimum accepted flit rate = 0.0753333 (at node 4)
Average accepted flit rate = 0.0894375
Maximum accepted flit rate = 0.103 (at node 7)
Total number of injected packets = 4283
Total number of injected flits = 4283
Average injected packet length = 1
Total number of accepted packets = 4293
Total number of accepted flits = 4293
Average accepted packet length = 1
Total in-flight flits = 51 (51 measured)
Draining remaining packets ...
Class 0:
Remaining flits: 8421 8444 8445 8446 8453 8459 8464 8465 8468 8469 [...] (33 flits)
Measured flits: 8421 8444 8445 8446 8453 8459 8464 8465 8468 8469 [...] (33 flits)
Class 0:
Remaining flits: 8444 8465 8469 8479 8485 8487 8488 8489 8490 8492 [...] (17 flits)
Measured flits: 8444 8465 8469 8479 8485 8487 8488 8489 8490 8492 [...] (17 flits)
Class 0:
Remaining flits: 8465 8487 8489 8490 8495 8496 8497 8499 8501 (9 flits)
Measured flits: 8465 8487 8489 8490 8495 8496 8497 8499 8501 (9 flits)
Class 0:
Remaining flits: 8489 8490 8497 (3 flits)
Measured flits: 8489 8490 8497 (3 flits)
Class 0:
Remaining flits: 8490 (1 flits)
Measured flits: 8490 (1 flits)
Class 0:
Remaining flits: (0 flits)
Measured flits: (0 flits)
Class 0:
Remaining flits: (0 flits)
Measured flits: (0 flits)
Class 0:
Remaining flits: (0 flits)
Measured flits: (0 flits)
Class 0:
Remaining flits: (0 flits)
Measured flits: (0 flits)
Class 0:
Remaining flits: (0 flits)
Measured flits: (0 flits)
Class 0:
Remaining flits: (0 flits)
Measured flits: (0 flits)
Class 0:
Remaining flits: (0 flits)
Measured flits: (0 flits)
Class 0:
Remaining flits: (0 flits)
Measured flits: (0 flits)
Class 0:
Remaining flits: (0 flits)
Measured flits: (0 flits)
Class 0:
Remaining flits: (0 flits)
Measured flits: (0 flits)
Class 0:
Remaining flits: (0 flits)
Measured flits: (0 flits)
Class 0:
Remaining flits: (0 flits)
Measured flits: (0 flits)
Class 0:
Remaining flits: (0 flits)
Measured flits: (0 flits)
Class 0:
Remaining flits: (0 flits)
Measured flits: (0 flits)
Class 0:
Remaining flits: (0 flits)
Measured flits: (0 flits)
Class 0:
Remaining flits: (0 flits)
Measured flits: (0 flits)
Class 0:
Remaining flits: (0 flits)
Measured flits: (0 flits)
Class 0:
Remaining flits: (0 flits)
Measured flits: (0 flits)
Class 0:
Remaining flits: (0 flits)
Measured flits: (0 flits)
Class 0:
Remaining flits: (0 flits)
Measured flits: (0 flits)
Class 0:
Remaining flits: (0 flits)
Measured flits: (0 flits)
Class 0:
Remaining flits: (0 flits)
Measured flits: (0 flits)
Class 0:
Remaining flits: (0 flits)
Measured flits: (0 flits)
Class 0:
Remaining flits: (0 flits)
Measured flits: (0 flits)
Class 0:
Remaining flits: (0 flits)
Measured flits: (0 flits)
Class 0:
Remaining flits: (0 flits)
Measured flits: (0 flits)
Class 0:
Remaining flits: (0 flits)
Measured flits: (0 flits)
Class 0:
Remaining flits: (0 flits)
Measured flits: (0 flits)
Class 0:
Remaining flits: (0 flits)
Measured flits: (0 flits)
Class 0:
Remaining flits: (0 flits)
Measured flits: (0 flits)
Class 0:
Remaining flits: (0 flits)
Measured flits: (0 flits)
Class 0:
Remaining flits: (0 flits)
Measured flits: (0 flits)
Class 0:
Remaining flits: (0 flits)
Measured flits: (0 flits)
Class 0:
Remaining flits: (0 flits)
Measured flits: (0 flits)
Class 0:
Remaining flits: (0 flits)
Measured flits: (0 flits)
Class 0:
Remaining flits: (0 flits)
Measured flits: (0 flits)
Class 0:
Remaining flits: (0 flits)
Measured flits: (0 flits)
Class 0:
Remaining flits: (0 flits)
Measured flits: (0 flits)
Class 0:
Remaining flits: (0 flits)
Measured flits: (0 flits)
Class 0:
Remaining flits: (0 flits)
Measured flits: (0 flits)
Class 0:
Remaining flits: (0 flits)
Measured flits: (0 flits)
Class 0:
Remaining flits: (0 flits)
Measured flits: (0 flits)
Class 0:
Remaining flits: (0 flits)
Measured flits: (0 flits)
Class 0:
Remaining flits: (0 flits)
Measured flits: (0 flits)
Class 0:
Remaining flits: (0 flits)
Measured flits: (0 flits)
Class 0:
Remaining flits: (0 flits)
Measured flits: (0 flits)
Class 0:
Remaining flits: (0 flits)
Measured flits: (0 flits)
Class 0:
Remaining flits: (0 flits)
Measured flits: (0 flits)
Class 0:
Remaining flits: (0 flits)
Measured flits: (0 flits)
Class 0:
Remaining flits: (0 flits)
Measured flits: (0 flits)
Class 0:
Remaining flits: (0 flits)
Measured flits: (0 flits)
Class 0:
Remaining flits: (0 flits)
Measured flits: (0 flits)
Class 0:
Remaining flits: (0 flits)
Measured flits: (0 flits)
Class 0:
Remaining flits: (0 flits)
Measured flits: (0 flits)
Class 0:
Remaining flits: (0 flits)
Measured flits: (0 flits)
Class 0:
Remaining flits: (0 flits)
Measured flits: (0 flits)
Class 0:
Remaining flits: (0 flits)
Measured flits: (0 flits)
Class 0:
Remaining flits: (0 flits)
Measured flits: (0 flits)
Class 0:
Remaining flits: (0 flits)
Measured flits: (0 flits)
Class 0:
Remaining flits: (0 flits)
Measured flits: (0 flits)
Class 0:
Remaining flits: (0 flits)
Measured flits: (0 flits)
Class 0:
Remaining flits: (0 flits)
Measured flits: (0 flits)
Class 0:
Remaining flits: (0 flits)
Measured flits: (0 flits)
Class 0:
Remaining flits: (0 flits)
Measured flits: (0 flits)
Class 0:
Remaining flits: (0 flits)
Measured flits: (0 flits)
Class 0:
Remaining flits: (0 flits)
Measured flits: (0 flits)
Class 0:
Remaining flits: (0 flits)
Measured flits: (0 flits)
Class 0:
Remaining flits: (0 flits)
Measured flits: (0 flits)
Class 0:
Remaining flits: (0 flits)
Measured flits: (0 flits)
Class 0:
Remaining flits: (0 flits)
Measured flits: (0 flits)
Class 0:
Remaining flits: (0 flits)
Measured flits: (0 flits)
Class 0:
Remaining flits: (0 flits)
Measured flits: (0 flits)
Class 0:
Remaining flits: (0 flits)
Measured flits: (0 flits)
Class 0:
Remaining flits: (0 flits)
Measured flits: (0 flits)
Class 0:
Remaining flits: (0 flits)
Measured flits: (0 flits)
Class 0:
Remaining flits: (0 flits)
Measured flits: (0 flits)
Class 0:
Remaining flits: (0 flits)
Measured flits: (0 flits)
Class 0:
Remaining flits: (0 flits)
Measured flits: (0 flits)
Class 0:
Remaining flits: (0 flits)
Measured flits: (0 flits)
Class 0:
Remaining flits: (0 flits)
Measured flits: (0 flits)
Class 0:
Remaining flits: (0 flits)
Measured flits: (0 flits)
Class 0:
Remaining flits: (0 flits)
Measured flits: (0 flits)
Class 0:
Remaining flits: (0 flits)
Measured flits: (0 flits)
Class 0:
Remaining flits: (0 flits)
Measured flits: (0 flits)
Class 0:
Remaining flits: (0 flits)
Measured flits: (0 flits)
Class 0:
Remaining flits: (0 flits)
Measured flits: (0 flits)
Class 0:
Remaining flits: (0 flits)
Measured flits: (0 flits)
Class 0:
Remaining flits: (0 flits)
Measured flits: (0 flits)
Class 0:
Remaining flits: (0 flits)
Measured flits: (0 flits)
Class 0:
Remaining flits: (0 flits)
Measured flits: (0 flits)
Class 0:
Remaining flits: (0 flits)
Measured flits: (0 flits)
Class 0:
Remaining flits: (0 flits)
Measured flits: (0 flits)
Class 0:
Remaining flits: (0 flits)
Measured flits: (0 flits)
Class 0:
Remaining flits: (0 flits)
Measured flits: (0 flits)
Class 0:
Remaining flits: (0 flits)
Measured flits: (0 flits)
Class 0:
Remaining flits: (0 flits)
Measured flits: (0 flits)
Time taken is 7000 cycles
====== Traffic class 0 ======

Total number of flits generated = 8502, changed lanes = 8141
Overall minimum packet latency = 8 (1 samples)
Overall average packet latency = 37.2767 (1 samples)
Overall maximum packet latency = 105 (1 samples)
Overall minimum network latency = 9 (1 samples)
Overall average network latency = 38.2767 (1 samples)
Overall maximum network latency = 106 (1 samples)
Overall minimum flit latency = 9 (1 samples)
Overall average flit latency = 38.3688 (1 samples)
Overall maximum flit latency = 106 (1 samples)
Overall minimum fragmentation = 0 (1 samples)
Overall average fragmentation = 0 (1 samples)
Overall maximum fragmentation = 0 (1 samples)
Overall minimum injected packet rate = 0.0836667 (1 samples)
Overall average injected packet rate = 0.0892292 (1 samples)
Overall maximum injected packet rate = 0.104 (1 samples)
Overall minimum accepted packet rate = 0.0753333 (1 samples)
Overall average accepted packet rate = 0.0894375 (1 samples)
Overall maximum accepted packet rate = 0.103 (1 samples)
Overall minimum injected flit rate = 0.0836667 (1 samples)
Overall average injected flit rate = 0.0892292 (1 samples)
Overall maximum injected flit rate = 0.104 (1 samples)
Overall minimum accepted flit rate = 0.0753333 (1 samples)
Overall average accepted flit rate = 0.0894375 (1 samples)
Overall maximum accepted flit rate = 0.103 (1 samples)
Overall average injected packet size = 1 (1 samples)
Overall average accepted packet size = 1 (1 samples)
Overall average hops = 2.98459 (1 samples)
Overall throughput of the network (flits/cycle) = 2.834
Overall throughput of the network (packets/cycle) = 2.834
Total run time 14.5082
