make: Nothing to be done for `all'.
Master: Running timer....
Master: Running SRC....
BEGIN Configuration File: ./examples/bitrev
// Topology

topology = torus;
k = 4;
n = 2;

// Routing
routing_function = dim_order;

// Flow control
num_vcs     = 4;
vc_buf_size = 4;
wait_for_tail_credit = 0;

// Router architecture
vc_allocator = islip;
sw_allocator = islip;
alloc_iters  = 1;

credit_delay   = 1;
routing_delay  = 1;
vc_alloc_delay = 1;
sw_alloc_delay = 1;

input_speedup     = 1;
output_speedup    = 1;
internal_speedup  = 1.0;

vc_busy_when_full = 0;

// Traffic
traffic = uniform;
packet_size = 1;

// Simulation
sim_type = throughput;

injection_rate = 0.29;

END Configuration File: ./examples/bitrev
===== Time: 1000 =====
Class 0:
Minimum packet latency = 8
Average packet latency = 231.541
Maximum packet latency = 492
Minimum network latency = 9
Average network latency = 117.241
Maximum network latency = 177
Slowest packet = 403
Minimum flit latency = 9
Average flit latency = 117.241
Maximum flit latency = 177
Slowest flit = 918
Minimum fragmentation = 0
Average fragmentation = 0
Maximum fragmentation = 0
Minimum injected packet rate = 0.179 (at node 0)
Average injected packet rate = 0.18075
Maximum injected packet rate = 0.182 (at node 9)
Minimum accepted packet rate = 0.142 (at node 14)
Average accepted packet rate = 0.15925
Maximum accepted packet rate = 0.182 (at node 15)
Minimum injected flit rate = 0.179 (at node 0)
Average injected flit rate = 0.18075
Maximum injected flit rate = 0.182 (at node 9)
Minimum accepted flit rate = 0.142 (at node 14)
Average accepted flit rate = 0.15925
Maximum accepted flit rate = 0.182 (at node 15)
Total number of injected packets = 2892
Total number of injected flits = 2892
Average injected packet length = 1
Total number of accepted packets = 2548
Total number of accepted flits = 2548
Average accepted packet length = 1
Total in-flight flits = 356 (0 measured)
===== Time: 2000 =====
Class 0:
Minimum packet latency = 8
Average packet latency = 442.952
Maximum packet latency = 980
Minimum network latency = 9
Average network latency = 122.783
Maximum network latency = 204
Slowest packet = 403
Minimum flit latency = 9
Average flit latency = 122.783
Maximum flit latency = 204
Slowest flit = 3915
Minimum fragmentation = 0
Average fragmentation = 0
Maximum fragmentation = 0
Minimum injected packet rate = 0.1725 (at node 0)
Average injected packet rate = 0.173531
Maximum injected packet rate = 0.174 (at node 2)
Minimum accepted packet rate = 0.1485 (at node 14)
Average accepted packet rate = 0.163
Maximum accepted packet rate = 0.18 (at node 8)
Minimum injected flit rate = 0.1725 (at node 0)
Average injected flit rate = 0.173531
Maximum injected flit rate = 0.174 (at node 2)
Minimum accepted flit rate = 0.1485 (at node 14)
Average accepted flit rate = 0.163
Maximum accepted flit rate = 0.18 (at node 8)
Total number of injected packets = 5553
Total number of injected flits = 5553
Average injected packet length = 1
Total number of accepted packets = 5216
Total number of accepted flits = 5216
Average accepted packet length = 1
Total in-flight flits = 350 (0 measured)
===== Time: 3000 =====
Class 0:
Minimum packet latency = 804
Average packet latency = 1064.87
Maximum packet latency = 1442
Minimum network latency = 98
Average network latency = 128.154
Maximum network latency = 197
Slowest packet = 5254
Minimum flit latency = 98
Average flit latency = 128.154
Maximum flit latency = 197
Slowest flit = 6385
Minimum fragmentation = 0
Average fragmentation = 0
Maximum fragmentation = 0
Minimum injected packet rate = 0.165 (at node 1)
Average injected packet rate = 0.166187
Maximum injected packet rate = 0.167 (at node 6)
Minimum accepted packet rate = 0.145 (at node 4)
Average accepted packet rate = 0.165937
Maximum accepted packet rate = 0.183 (at node 7)
Minimum injected flit rate = 0.165 (at node 1)
Average injected flit rate = 0.166187
Maximum injected flit rate = 0.167 (at node 6)
Minimum accepted flit rate = 0.145 (at node 4)
Average accepted flit rate = 0.165937
Maximum accepted flit rate = 0.183 (at node 7)
Total number of injected packets = 2659
Total number of injected flits = 2659
Average injected packet length = 1
Total number of accepted packets = 2655
Total number of accepted flits = 2655
Average accepted packet length = 1
Total in-flight flits = 356 (0 measured)
===== Time: 4000 =====
Class 0:
Minimum packet latency = 1206
Average packet latency = 1510.57
Maximum packet latency = 1819
Minimum network latency = 97
Average network latency = 128.262
Maximum network latency = 183
Slowest packet = 8252
Minimum flit latency = 97
Average flit latency = 128.446
Maximum flit latency = 183
Slowest flit = 9898
Minimum fragmentation = 0
Average fragmentation = 0
Maximum fragmentation = 0
Minimum injected packet rate = 0.165 (at node 0)
Average injected packet rate = 0.166375
Maximum injected packet rate = 0.167 (at node 1)
Minimum accepted packet rate = 0.135 (at node 5)
Average accepted packet rate = 0.165937
Maximum accepted packet rate = 0.184 (at node 12)
Minimum injected flit rate = 0.165 (at node 0)
Average injected flit rate = 0.166375
Maximum injected flit rate = 0.167 (at node 1)
Minimum accepted flit rate = 0.135 (at node 5)
Average accepted flit rate = 0.165937
Maximum accepted flit rate = 0.184 (at node 12)
Total number of injected packets = 2662
Total number of injected flits = 2662
Average injected packet length = 1
Total number of accepted packets = 2655
Total number of accepted flits = 2655
Average accepted packet length = 1
Total in-flight flits = 362 (362 measured)
===== Time: 5000 =====
Class 0:
Minimum packet latency = 1206
Average packet latency = 1726.63
Maximum packet latency = 2260
Minimum network latency = 97
Average network latency = 128.243
Maximum network latency = 213
Slowest packet = 8252
Minimum flit latency = 97
Average flit latency = 128.336
Maximum flit latency = 213
Slowest flit = 10523
Minimum fragmentation = 0
Average fragmentation = 0
Maximum fragmentation = 0
Minimum injected packet rate = 0.165 (at node 0)
Average injected packet rate = 0.166281
Maximum injected packet rate = 0.167 (at node 4)
Minimum accepted packet rate = 0.153 (at node 5)
Average accepted packet rate = 0.16625
Maximum accepted packet rate = 0.1765 (at node 8)
Minimum injected flit rate = 0.165 (at node 0)
Average injected flit rate = 0.166281
Maximum injected flit rate = 0.167 (at node 4)
Minimum accepted flit rate = 0.153 (at node 5)
Average accepted flit rate = 0.16625
Maximum accepted flit rate = 0.1765 (at node 8)
Total number of injected packets = 5321
Total number of injected flits = 5321
Average injected packet length = 1
Total number of accepted packets = 5320
Total number of accepted flits = 5320
Average accepted packet length = 1
Total in-flight flits = 353 (353 measured)
===== Time: 6000 =====
Class 0:
Minimum packet latency = 1206
Average packet latency = 1942.43
Maximum packet latency = 2700
Minimum network latency = 97
Average network latency = 128.477
Maximum network latency = 248
Slowest packet = 8252
Minimum flit latency = 97
Average flit latency = 128.529
Maximum flit latency = 248
Slowest flit = 13028
Minimum fragmentation = 0
Average fragmentation = 0
Maximum fragmentation = 0
Minimum injected packet rate = 0.162667 (at node 2)
Average injected packet rate = 0.166125
Maximum injected packet rate = 0.167 (at node 1)
Minimum accepted packet rate = 0.147 (at node 13)
Average accepted packet rate = 0.166042
Maximum accepted packet rate = 0.177667 (at node 3)
Minimum injected flit rate = 0.162667 (at node 2)
Average injected flit rate = 0.166125
Maximum injected flit rate = 0.167 (at node 1)
Minimum accepted flit rate = 0.147 (at node 13)
Average accepted flit rate = 0.166042
Maximum accepted flit rate = 0.177667 (at node 3)
Total number of injected packets = 7974
Total number of injected flits = 7974
Average injected packet length = 1
Total number of accepted packets = 7970
Total number of accepted flits = 7970
Average accepted packet length = 1
Total in-flight flits = 356 (356 measured)
Draining remaining packets ...
Class 0:
Remaining flits: 15771 15788 15812 15825 15829 15834 15836 15844 15845 15852 [...] (326 flits)
Measured flits: 15771 15788 15812 15825 15829 15834 15836 15844 15845 15852 [...] (326 flits)
Class 0:
Remaining flits: 15788 15836 15844 15845 15859 15864 15869 15871 15874 15877 [...] (303 flits)
Measured flits: 15788 15836 15844 15845 15859 15864 15869 15871 15874 15877 [...] (303 flits)
Class 0:
Remaining flits: 15859 15877 15880 15884 15888 15904 15906 15908 15910 15913 [...] (274 flits)
Measured flits: 15859 15877 15880 15884 15888 15904 15906 15908 15910 15913 [...] (274 flits)
Class 0:
Remaining flits: 15859 15877 15888 15904 15906 15910 15915 15916 15921 15927 [...] (255 flits)
Measured flits: 15859 15877 15888 15904 15906 15910 15915 15916 15921 15927 [...] (255 flits)
Class 0:
Remaining flits: 15877 15906 15915 15931 15935 15937 15941 15942 15944 15949 [...] (222 flits)
Measured flits: 15877 15906 15915 15931 15935 15937 15941 15942 15944 15949 [...] (222 flits)
Class 0:
Remaining flits: 15949 15951 15955 15969 15970 15972 15974 15975 15976 15977 [...] (197 flits)
Measured flits: 15949 15951 15955 15969 15970 15972 15974 15975 15976 15977 [...] (197 flits)
Class 0:
Remaining flits: 15949 15975 15977 15981 15996 16006 16007 16010 16011 16012 [...] (169 flits)
Measured flits: 15949 15975 15977 15981 15996 16006 16007 16010 16011 16012 [...] (169 flits)
Class 0:
Remaining flits: 15981 15996 16007 16030 16031 16035 16036 16039 16040 16041 [...] (138 flits)
Measured flits: 15981 15996 16007 16030 16031 16035 16036 16039 16040 16041 [...] (138 flits)
Class 0:
Remaining flits: 16030 16036 16039 16044 16050 16057 16062 16068 16069 16070 [...] (115 flits)
Measured flits: 16030 16036 16039 16044 16050 16057 16062 16068 16069 16070 [...] (115 flits)
Class 0:
Remaining flits: 16036 16044 16050 16062 16068 16069 16073 16081 16087 16093 [...] (89 flits)
Measured flits: 16036 16044 16050 16062 16068 16069 16073 16081 16087 16093 [...] (89 flits)
Class 0:
Remaining flits: 16062 16095 16096 16098 16099 16102 16108 16110 16115 16119 [...] (61 flits)
Measured flits: 16062 16095 16096 16098 16099 16102 16108 16110 16115 16119 [...] (61 flits)
Class 0:
Remaining flits: 16102 16110 16115 16121 16122 16142 16144 16145 16148 16149 [...] (41 flits)
Measured flits: 16102 16110 16115 16121 16122 16142 16144 16145 16148 16149 [...] (41 flits)
Class 0:
Remaining flits: 16142 16145 16149 16154 16159 16163 16164 16166 16168 16172 [...] (27 flits)
Measured flits: 16142 16145 16149 16154 16159 16163 16164 16166 16168 16172 [...] (27 flits)
Class 0:
Remaining flits: 16166 16180 16182 16183 16186 16187 16189 16190 16191 16192 [...] (14 flits)
Measured flits: 16166 16180 16182 16183 16186 16187 16189 16190 16191 16192 [...] (14 flits)
Class 0:
Remaining flits: 16180 16182 16186 16187 16189 16190 16191 16193 16194 16195 [...] (11 flits)
Measured flits: 16180 16182 16186 16187 16189 16190 16191 16193 16194 16195 [...] (11 flits)
Class 0:
Remaining flits: 16180 16182 16186 16187 16189 16190 16191 16194 16195 16196 (10 flits)
Measured flits: 16180 16182 16186 16187 16189 16190 16191 16194 16195 16196 (10 flits)
Class 0:
Remaining flits: 16180 16182 16186 16187 16189 16190 16191 16194 16195 16196 (10 flits)
Measured flits: 16180 16182 16186 16187 16189 16190 16191 16194 16195 16196 (10 flits)
Class 0:
Remaining flits: 16180 16182 16186 16187 16189 16190 16191 16194 16195 16196 (10 flits)
Measured flits: 16180 16182 16186 16187 16189 16190 16191 16194 16195 16196 (10 flits)
Class 0:
Remaining flits: 16180 16182 16186 16187 16189 16190 16191 16194 16195 16196 (10 flits)
Measured flits: 16180 16182 16186 16187 16189 16190 16191 16194 16195 16196 (10 flits)
Class 0:
Remaining flits: 16180 16182 16186 16187 16189 16190 16191 16194 16195 16196 (10 flits)
Measured flits: 16180 16182 16186 16187 16189 16190 16191 16194 16195 16196 (10 flits)
Class 0:
Remaining flits: 16180 16182 16186 16187 16189 16190 16191 16194 16195 16196 (10 flits)
Measured flits: 16180 16182 16186 16187 16189 16190 16191 16194 16195 16196 (10 flits)
Class 0:
Remaining flits: 16180 16182 16186 16187 16189 16190 16191 16194 16195 16196 (10 flits)
Measured flits: 16180 16182 16186 16187 16189 16190 16191 16194 16195 16196 (10 flits)
Class 0:
Remaining flits: 16180 16182 16186 16187 16189 16190 16191 16194 16195 16196 (10 flits)
Measured flits: 16180 16182 16186 16187 16189 16190 16191 16194 16195 16196 (10 flits)
Class 0:
Remaining flits: 16180 16182 16186 16187 16189 16190 16191 16194 16195 16196 (10 flits)
Measured flits: 16180 16182 16186 16187 16189 16190 16191 16194 16195 16196 (10 flits)
Class 0:
Remaining flits: 16180 16182 16186 16187 16189 16190 16191 16194 16195 16196 (10 flits)
Measured flits: 16180 16182 16186 16187 16189 16190 16191 16194 16195 16196 (10 flits)
Class 0:
Remaining flits: 16180 16182 16186 16187 16189 16190 16191 16194 16195 16196 (10 flits)
Measured flits: 16180 16182 16186 16187 16189 16190 16191 16194 16195 16196 (10 flits)
Class 0:
Remaining flits: 16180 16182 16186 16187 16189 16190 16191 16194 16195 16196 (10 flits)
Measured flits: 16180 16182 16186 16187 16189 16190 16191 16194 16195 16196 (10 flits)
Class 0:
Remaining flits: 16180 16182 16186 16187 16189 16190 16191 16194 16195 16196 (10 flits)
Measured flits: 16180 16182 16186 16187 16189 16190 16191 16194 16195 16196 (10 flits)
Class 0:
Remaining flits: 16180 16182 16186 16187 16189 16190 16191 16194 16195 16196 (10 flits)
Measured flits: 16180 16182 16186 16187 16189 16190 16191 16194 16195 16196 (10 flits)
Class 0:
Remaining flits: 16180 16182 16186 16187 16189 16190 16191 16194 16195 16196 (10 flits)
Measured flits: 16180 16182 16186 16187 16189 16190 16191 16194 16195 16196 (10 flits)
Class 0:
Remaining flits: 16180 16182 16186 16187 16189 16190 16191 16194 16195 16196 (10 flits)
Measured flits: 16180 16182 16186 16187 16189 16190 16191 16194 16195 16196 (10 flits)
Class 0:
Remaining flits: 16180 16182 16186 16187 16189 16190 16191 16194 16195 16196 (10 flits)
Measured flits: 16180 16182 16186 16187 16189 16190 16191 16194 16195 16196 (10 flits)
Class 0:
Remaining flits: 16180 16182 16186 16187 16189 16190 16191 16194 16195 16196 (10 flits)
Measured flits: 16180 16182 16186 16187 16189 16190 16191 16194 16195 16196 (10 flits)
Class 0:
Remaining flits: 16180 16182 16186 16187 16189 16190 16191 16194 16195 16196 (10 flits)
Measured flits: 16180 16182 16186 16187 16189 16190 16191 16194 16195 16196 (10 flits)
Class 0:
Remaining flits: 16180 16182 16186 16187 16189 16190 16191 16194 16195 16196 (10 flits)
Measured flits: 16180 16182 16186 16187 16189 16190 16191 16194 16195 16196 (10 flits)
Class 0:
Remaining flits: 16180 16182 16186 16187 16189 16190 16191 16194 16195 16196 (10 flits)
Measured flits: 16180 16182 16186 16187 16189 16190 16191 16194 16195 16196 (10 flits)
Class 0:
Remaining flits: 16180 16182 16186 16187 16189 16190 16191 16194 16195 16196 (10 flits)
Measured flits: 16180 16182 16186 16187 16189 16190 16191 16194 16195 16196 (10 flits)
Class 0:
Remaining flits: 16180 16182 16186 16187 16189 16190 16191 16194 16195 16196 (10 flits)
Measured flits: 16180 16182 16186 16187 16189 16190 16191 16194 16195 16196 (10 flits)
Class 0:
Remaining flits: 16180 16182 16186 16187 16189 16190 16191 16194 16195 16196 (10 flits)
Measured flits: 16180 16182 16186 16187 16189 16190 16191 16194 16195 16196 (10 flits)
Class 0:
Remaining flits: 16180 16182 16186 16187 16189 16190 16191 16194 16195 16196 (10 flits)
Measured flits: 16180 16182 16186 16187 16189 16190 16191 16194 16195 16196 (10 flits)
Class 0:
Remaining flits: 16180 16182 16186 16187 16189 16190 16191 16194 16195 16196 (10 flits)
Measured flits: 16180 16182 16186 16187 16189 16190 16191 16194 16195 16196 (10 flits)
Class 0:
Remaining flits: 16180 16182 16186 16187 16189 16190 16191 16194 16195 16196 (10 flits)
Measured flits: 16180 16182 16186 16187 16189 16190 16191 16194 16195 16196 (10 flits)
Class 0:
Remaining flits: 16180 16182 16186 16187 16189 16190 16191 16194 16195 16196 (10 flits)
Measured flits: 16180 16182 16186 16187 16189 16190 16191 16194 16195 16196 (10 flits)
Class 0:
Remaining flits: 16180 16182 16186 16187 16189 16190 16191 16194 16195 16196 (10 flits)
Measured flits: 16180 16182 16186 16187 16189 16190 16191 16194 16195 16196 (10 flits)
Class 0:
Remaining flits: 16180 16182 16186 16187 16189 16190 16191 16194 16195 16196 (10 flits)
Measured flits: 16180 16182 16186 16187 16189 16190 16191 16194 16195 16196 (10 flits)
Class 0:
Remaining flits: 16180 16182 16186 16187 16189 16190 16191 16194 16195 16196 (10 flits)
Measured flits: 16180 16182 16186 16187 16189 16190 16191 16194 16195 16196 (10 flits)
Class 0:
Remaining flits: 16180 16182 16186 16187 16189 16190 16191 16194 16195 16196 (10 flits)
Measured flits: 16180 16182 16186 16187 16189 16190 16191 16194 16195 16196 (10 flits)
Class 0:
Remaining flits: 16180 16182 16186 16187 16189 16190 16191 16194 16195 16196 (10 flits)
Measured flits: 16180 16182 16186 16187 16189 16190 16191 16194 16195 16196 (10 flits)
Class 0:
Remaining flits: 16180 16182 16186 16187 16189 16190 16191 16194 16195 16196 (10 flits)
Measured flits: 16180 16182 16186 16187 16189 16190 16191 16194 16195 16196 (10 flits)
Class 0:
Remaining flits: 16180 16182 16186 16187 16189 16190 16191 16194 16195 16196 (10 flits)
Measured flits: 16180 16182 16186 16187 16189 16190 16191 16194 16195 16196 (10 flits)
Class 0:
Remaining flits: 16180 16182 16186 16187 16189 16190 16191 16194 16195 16196 (10 flits)
Measured flits: 16180 16182 16186 16187 16189 16190 16191 16194 16195 16196 (10 flits)
Class 0:
Remaining flits: 16180 16182 16186 16187 16189 16190 16191 16194 16195 16196 (10 flits)
Measured flits: 16180 16182 16186 16187 16189 16190 16191 16194 16195 16196 (10 flits)
Class 0:
Remaining flits: 16180 16182 16186 16187 16189 16190 16191 16194 16195 16196 (10 flits)
Measured flits: 16180 16182 16186 16187 16189 16190 16191 16194 16195 16196 (10 flits)
Class 0:
Remaining flits: 16180 16182 16186 16187 16189 16190 16191 16194 16195 16196 (10 flits)
Measured flits: 16180 16182 16186 16187 16189 16190 16191 16194 16195 16196 (10 flits)
Class 0:
Remaining flits: 16180 16182 16186 16187 16189 16190 16191 16194 16195 16196 (10 flits)
Measured flits: 16180 16182 16186 16187 16189 16190 16191 16194 16195 16196 (10 flits)
Class 0:
Remaining flits: 16180 16182 16186 16187 16189 16190 16191 16194 16195 16196 (10 flits)
Measured flits: 16180 16182 16186 16187 16189 16190 16191 16194 16195 16196 (10 flits)
Class 0:
Remaining flits: 16180 16182 16186 16187 16189 16190 16191 16194 16195 16196 (10 flits)
Measured flits: 16180 16182 16186 16187 16189 16190 16191 16194 16195 16196 (10 flits)
Class 0:
Remaining flits: 16180 16182 16186 16187 16189 16190 16191 16194 16195 16196 (10 flits)
Measured flits: 16180 16182 16186 16187 16189 16190 16191 16194 16195 16196 (10 flits)
Class 0:
Remaining flits: 16180 16182 16186 16187 16189 16190 16191 16194 16195 16196 (10 flits)
Measured flits: 16180 16182 16186 16187 16189 16190 16191 16194 16195 16196 (10 flits)
Class 0:
Remaining flits: 16180 16182 16186 16187 16189 16190 16191 16194 16195 16196 (10 flits)
Measured flits: 16180 16182 16186 16187 16189 16190 16191 16194 16195 16196 (10 flits)
Class 0:
Remaining flits: 16180 16182 16186 16187 16189 16190 16191 16194 16195 16196 (10 flits)
Measured flits: 16180 16182 16186 16187 16189 16190 16191 16194 16195 16196 (10 flits)
Class 0:
Remaining flits: 16180 16182 16186 16187 16189 16190 16191 16194 16195 16196 (10 flits)
Measured flits: 16180 16182 16186 16187 16189 16190 16191 16194 16195 16196 (10 flits)
Class 0:
Remaining flits: 16180 16182 16186 16187 16189 16190 16191 16194 16195 16196 (10 flits)
Measured flits: 16180 16182 16186 16187 16189 16190 16191 16194 16195 16196 (10 flits)
Class 0:
Remaining flits: 16180 16182 16186 16187 16189 16190 16191 16194 16195 16196 (10 flits)
Measured flits: 16180 16182 16186 16187 16189 16190 16191 16194 16195 16196 (10 flits)
Class 0:
Remaining flits: 16180 16182 16186 16187 16189 16190 16191 16194 16195 16196 (10 flits)
Measured flits: 16180 16182 16186 16187 16189 16190 16191 16194 16195 16196 (10 flits)
Class 0:
Remaining flits: 16180 16182 16186 16187 16189 16190 16191 16194 16195 16196 (10 flits)
Measured flits: 16180 16182 16186 16187 16189 16190 16191 16194 16195 16196 (10 flits)
Class 0:
Remaining flits: 16180 16182 16186 16187 16189 16190 16191 16194 16195 16196 (10 flits)
Measured flits: 16180 16182 16186 16187 16189 16190 16191 16194 16195 16196 (10 flits)
Class 0:
Remaining flits: 16180 16182 16186 16187 16189 16190 16191 16194 16195 16196 (10 flits)
Measured flits: 16180 16182 16186 16187 16189 16190 16191 16194 16195 16196 (10 flits)
Class 0:
Remaining flits: 16180 16182 16186 16187 16189 16190 16191 16194 16195 16196 (10 flits)
Measured flits: 16180 16182 16186 16187 16189 16190 16191 16194 16195 16196 (10 flits)
Class 0:
Remaining flits: 16180 16182 16186 16187 16189 16190 16191 16194 16195 16196 (10 flits)
Measured flits: 16180 16182 16186 16187 16189 16190 16191 16194 16195 16196 (10 flits)
Class 0:
Remaining flits: 16180 16182 16186 16187 16189 16190 16191 16194 16195 16196 (10 flits)
Measured flits: 16180 16182 16186 16187 16189 16190 16191 16194 16195 16196 (10 flits)
Class 0:
Remaining flits: 16180 16182 16186 16187 16189 16190 16191 16194 16195 16196 (10 flits)
Measured flits: 16180 16182 16186 16187 16189 16190 16191 16194 16195 16196 (10 flits)
Class 0:
Remaining flits: 16180 16182 16186 16187 16189 16190 16191 16194 16195 16196 (10 flits)
Measured flits: 16180 16182 16186 16187 16189 16190 16191 16194 16195 16196 (10 flits)
Class 0:
Remaining flits: 16180 16182 16186 16187 16189 16190 16191 16194 16195 16196 (10 flits)
Measured flits: 16180 16182 16186 16187 16189 16190 16191 16194 16195 16196 (10 flits)
Class 0:
Remaining flits: 16180 16182 16186 16187 16189 16190 16191 16194 16195 16196 (10 flits)
Measured flits: 16180 16182 16186 16187 16189 16190 16191 16194 16195 16196 (10 flits)
Class 0:
Remaining flits: 16180 16182 16186 16187 16189 16190 16191 16194 16195 16196 (10 flits)
Measured flits: 16180 16182 16186 16187 16189 16190 16191 16194 16195 16196 (10 flits)
Class 0:
Remaining flits: 16180 16182 16186 16187 16189 16190 16191 16194 16195 16196 (10 flits)
Measured flits: 16180 16182 16186 16187 16189 16190 16191 16194 16195 16196 (10 flits)
Class 0:
Remaining flits: 16180 16182 16186 16187 16189 16190 16191 16194 16195 16196 (10 flits)
Measured flits: 16180 16182 16186 16187 16189 16190 16191 16194 16195 16196 (10 flits)
Class 0:
Remaining flits: 16180 16182 16186 16187 16189 16190 16191 16194 16195 16196 (10 flits)
Measured flits: 16180 16182 16186 16187 16189 16190 16191 16194 16195 16196 (10 flits)
Class 0:
Remaining flits: 16180 16182 16186 16187 16189 16190 16191 16194 16195 16196 (10 flits)
Measured flits: 16180 16182 16186 16187 16189 16190 16191 16194 16195 16196 (10 flits)
Class 0:
Remaining flits: 16180 16182 16186 16187 16189 16190 16191 16194 16195 16196 (10 flits)
Measured flits: 16180 16182 16186 16187 16189 16190 16191 16194 16195 16196 (10 flits)
Class 0:
Remaining flits: 16180 16182 16186 16187 16189 16190 16191 16194 16195 16196 (10 flits)
Measured flits: 16180 16182 16186 16187 16189 16190 16191 16194 16195 16196 (10 flits)
Class 0:
Remaining flits: 16180 16182 16186 16187 16189 16190 16191 16194 16195 16196 (10 flits)
Measured flits: 16180 16182 16186 16187 16189 16190 16191 16194 16195 16196 (10 flits)
Class 0:
Remaining flits: 16180 16182 16186 16187 16189 16190 16191 16194 16195 16196 (10 flits)
Measured flits: 16180 16182 16186 16187 16189 16190 16191 16194 16195 16196 (10 flits)
Class 0:
Remaining flits: 16180 16182 16186 16187 16189 16190 16191 16194 16195 16196 (10 flits)
Measured flits: 16180 16182 16186 16187 16189 16190 16191 16194 16195 16196 (10 flits)
Class 0:
Remaining flits: 16180 16182 16186 16187 16189 16190 16191 16194 16195 16196 (10 flits)
Measured flits: 16180 16182 16186 16187 16189 16190 16191 16194 16195 16196 (10 flits)
Class 0:
Remaining flits: 16180 16182 16186 16187 16189 16190 16191 16194 16195 16196 (10 flits)
Measured flits: 16180 16182 16186 16187 16189 16190 16191 16194 16195 16196 (10 flits)
Class 0:
Remaining flits: 16180 16182 16186 16187 16189 16190 16191 16194 16195 16196 (10 flits)
Measured flits: 16180 16182 16186 16187 16189 16190 16191 16194 16195 16196 (10 flits)
Class 0:
Remaining flits: 16180 16182 16186 16187 16189 16190 16191 16194 16195 16196 (10 flits)
Measured flits: 16180 16182 16186 16187 16189 16190 16191 16194 16195 16196 (10 flits)
Class 0:
Remaining flits: 16180 16182 16186 16187 16189 16190 16191 16194 16195 16196 (10 flits)
Measured flits: 16180 16182 16186 16187 16189 16190 16191 16194 16195 16196 (10 flits)
Class 0:
Remaining flits: 16180 16182 16186 16187 16189 16190 16191 16194 16195 16196 (10 flits)
Measured flits: 16180 16182 16186 16187 16189 16190 16191 16194 16195 16196 (10 flits)
Class 0:
Remaining flits: 16180 16182 16186 16187 16189 16190 16191 16194 16195 16196 (10 flits)
Measured flits: 16180 16182 16186 16187 16189 16190 16191 16194 16195 16196 (10 flits)
Class 0:
Remaining flits: 16180 16182 16186 16187 16189 16190 16191 16194 16195 16196 (10 flits)
Measured flits: 16180 16182 16186 16187 16189 16190 16191 16194 16195 16196 (10 flits)
Class 0:
Remaining flits: 16180 16182 16186 16187 16189 16190 16191 16194 16195 16196 (10 flits)
Measured flits: 16180 16182 16186 16187 16189 16190 16191 16194 16195 16196 (10 flits)
Class 0:
Remaining flits: 16180 16182 16186 16187 16189 16190 16191 16194 16195 16196 (10 flits)
Measured flits: 16180 16182 16186 16187 16189 16190 16191 16194 16195 16196 (10 flits)
Class 0:
Remaining flits: 16180 16182 16186 16187 16189 16190 16191 16194 16195 16196 (10 flits)
Measured flits: 16180 16182 16186 16187 16189 16190 16191 16194 16195 16196 (10 flits)
Class 0:
Remaining flits: 16180 16182 16186 16187 16189 16190 16191 16194 16195 16196 (10 flits)
Measured flits: 16180 16182 16186 16187 16189 16190 16191 16194 16195 16196 (10 flits)
Class 0:
Remaining flits: 16180 16182 16186 16187 16189 16190 16191 16194 16195 16196 (10 flits)
Measured flits: 16180 16182 16186 16187 16189 16190 16191 16194 16195 16196 (10 flits)
Class 0:
Remaining flits: 16180 16182 16186 16187 16189 16190 16191 16194 16195 16196 (10 flits)
Measured flits: 16180 16182 16186 16187 16189 16190 16191 16194 16195 16196 (10 flits)
Class 0:
Remaining flits: 16180 16182 16186 16187 16189 16190 16191 16194 16195 16196 (10 flits)
Measured flits: 16180 16182 16186 16187 16189 16190 16191 16194 16195 16196 (10 flits)
Class 0:
Remaining flits: 16180 16182 16186 16187 16189 16190 16191 16194 16195 16196 (10 flits)
Measured flits: 16180 16182 16186 16187 16189 16190 16191 16194 16195 16196 (10 flits)
Time taken is 7000 cycles
====== Traffic class 0 ======

Total number of flits generated = 16197, changed lanes = 16032
Overall minimum packet latency = 1206 (1 samples)
Overall average packet latency = 1970.51 (1 samples)
Overall maximum packet latency = 2756 (1 samples)
Overall minimum network latency = 97 (1 samples)
Overall average network latency = 128.559 (1 samples)
Overall maximum network latency = 248 (1 samples)
Overall minimum flit latency = 97 (1 samples)
Overall average flit latency = 128.605 (1 samples)
Overall maximum flit latency = 248 (1 samples)
Overall minimum fragmentation = 0 (1 samples)
Overall average fragmentation = 0 (1 samples)
Overall maximum fragmentation = 0 (1 samples)
Overall minimum injected packet rate = 0.162667 (1 samples)
Overall average injected packet rate = 0.166125 (1 samples)
Overall maximum injected packet rate = 0.167 (1 samples)
Overall minimum accepted packet rate = 0.147 (1 samples)
Overall average accepted packet rate = 0.166042 (1 samples)
Overall maximum accepted packet rate = 0.177667 (1 samples)
Overall minimum injected flit rate = 0.162667 (1 samples)
Overall average injected flit rate = 0.166125 (1 samples)
Overall maximum injected flit rate = 0.167 (1 samples)
Overall minimum accepted flit rate = 0.147 (1 samples)
Overall average accepted flit rate = 0.166042 (1 samples)
Overall maximum accepted flit rate = 0.177667 (1 samples)
Overall average injected packet size = 1 (1 samples)
Overall average accepted packet size = 1 (1 samples)
Overall average hops = 2.99837 (1 samples)
Overall throughput of the network (flits/cycle) = 5.39567
Overall throughput of the network (packets/cycle) = 5.39567
Total run time 4316.75
