make: Nothing to be done for `all'.
Master: Running timer....
Master: Running SRC....
BEGIN Configuration File: ./examples/bitrev
// Topology

topology = torus;
k = 4;
n = 2;

// Routing
routing_function = dim_order;

// Flow control
num_vcs     = 4;
vc_buf_size = 4;
wait_for_tail_credit = 0;

// Router architecture
vc_allocator = islip;
sw_allocator = islip;
alloc_iters  = 1;

credit_delay   = 1;
routing_delay  = 1;
vc_alloc_delay = 1;
sw_alloc_delay = 1;

input_speedup     = 1;
output_speedup    = 1;
internal_speedup  = 1.0;

vc_busy_when_full = 0;

// Traffic
traffic = uniform;
packet_size = 1;

// Simulation
sim_type = throughput;

injection_rate = 0.17;

END Configuration File: ./examples/bitrev
===== Time: 1000 =====
Class 0:
Minimum packet latency = 9
Average packet latency = 66.7937
Maximum packet latency = 182
Minimum network latency = 10
Average network latency = 67.6393
Maximum network latency = 167
Slowest packet = 2160
Minimum flit latency = 10
Average flit latency = 67.6393
Maximum flit latency = 167
Slowest flit = 2160
Minimum fragmentation = 0
Average fragmentation = 0
Maximum fragmentation = 0
Minimum injected packet rate = 0.15 (at node 9)
Average injected packet rate = 0.16475
Maximum injected packet rate = 0.179 (at node 3)
Minimum accepted packet rate = 0.138 (at node 10)
Average accepted packet rate = 0.150562
Maximum accepted packet rate = 0.164 (at node 0)
Minimum injected flit rate = 0.15 (at node 9)
Average injected flit rate = 0.16475
Maximum injected flit rate = 0.179 (at node 3)
Minimum accepted flit rate = 0.138 (at node 10)
Average accepted flit rate = 0.150562
Maximum accepted flit rate = 0.164 (at node 0)
Total number of injected packets = 2636
Total number of injected flits = 2636
Average injected packet length = 1
Total number of accepted packets = 2409
Total number of accepted flits = 2409
Average accepted packet length = 1
Total in-flight flits = 229 (0 measured)
===== Time: 2000 =====
Class 0:
Minimum packet latency = 8
Average packet latency = 82.6067
Maximum packet latency = 249
Minimum network latency = 9
Average network latency = 78.3917
Maximum network latency = 185
Slowest packet = 2432
Minimum flit latency = 9
Average flit latency = 78.3917
Maximum flit latency = 185
Slowest flit = 2432
Minimum fragmentation = 0
Average fragmentation = 0
Maximum fragmentation = 0
Minimum injected packet rate = 0.159 (at node 8)
Average injected packet rate = 0.164656
Maximum injected packet rate = 0.172 (at node 2)
Minimum accepted packet rate = 0.1445 (at node 9)
Average accepted packet rate = 0.156531
Maximum accepted packet rate = 0.1685 (at node 8)
Minimum injected flit rate = 0.159 (at node 8)
Average injected flit rate = 0.164656
Maximum injected flit rate = 0.172 (at node 2)
Minimum accepted flit rate = 0.1445 (at node 9)
Average accepted flit rate = 0.156531
Maximum accepted flit rate = 0.1685 (at node 8)
Total number of injected packets = 5269
Total number of injected flits = 5269
Average injected packet length = 1
Total number of accepted packets = 5009
Total number of accepted flits = 5009
Average accepted packet length = 1
Total in-flight flits = 265 (0 measured)
===== Time: 3000 =====
Class 0:
Minimum packet latency = 8
Average packet latency = 117.418
Maximum packet latency = 304
Minimum network latency = 9
Average network latency = 98.4646
Maximum network latency = 238
Slowest packet = 4973
Minimum flit latency = 9
Average flit latency = 98.4646
Maximum flit latency = 238
Slowest flit = 6548
Minimum fragmentation = 0
Average fragmentation = 0
Maximum fragmentation = 0
Minimum injected packet rate = 0.14 (at node 8)
Average injected packet rate = 0.16325
Maximum injected packet rate = 0.173 (at node 4)
Minimum accepted packet rate = 0.143 (at node 2)
Average accepted packet rate = 0.163312
Maximum accepted packet rate = 0.188 (at node 7)
Minimum injected flit rate = 0.14 (at node 8)
Average injected flit rate = 0.16325
Maximum injected flit rate = 0.173 (at node 4)
Minimum accepted flit rate = 0.143 (at node 2)
Average accepted flit rate = 0.163312
Maximum accepted flit rate = 0.188 (at node 7)
Total number of injected packets = 2612
Total number of injected flits = 2612
Average injected packet length = 1
Total number of accepted packets = 2613
Total number of accepted flits = 2613
Average accepted packet length = 1
Total in-flight flits = 266 (0 measured)
===== Time: 4000 =====
Class 0:
Minimum packet latency = 9
Average packet latency = 154.436
Maximum packet latency = 379
Minimum network latency = 10
Average network latency = 106.51
Maximum network latency = 182
Slowest packet = 7890
Minimum flit latency = 10
Average flit latency = 107.048
Maximum flit latency = 182
Slowest flit = 9071
Minimum fragmentation = 0
Average fragmentation = 0
Maximum fragmentation = 0
Minimum injected packet rate = 0.141 (at node 9)
Average injected packet rate = 0.166625
Maximum injected packet rate = 0.178 (at node 5)
Minimum accepted packet rate = 0.132 (at node 14)
Average accepted packet rate = 0.163438
Maximum accepted packet rate = 0.185 (at node 9)
Minimum injected flit rate = 0.141 (at node 9)
Average injected flit rate = 0.166625
Maximum injected flit rate = 0.178 (at node 5)
Minimum accepted flit rate = 0.132 (at node 14)
Average accepted flit rate = 0.163438
Maximum accepted flit rate = 0.185 (at node 9)
Total number of injected packets = 2666
Total number of injected flits = 2666
Average injected packet length = 1
Total number of accepted packets = 2615
Total number of accepted flits = 2615
Average accepted packet length = 1
Total in-flight flits = 320 (320 measured)
===== Time: 5000 =====
Class 0:
Minimum packet latency = 9
Average packet latency = 166.51
Maximum packet latency = 418
Minimum network latency = 10
Average network latency = 111.824
Maximum network latency = 209
Slowest packet = 7890
Minimum flit latency = 10
Average flit latency = 111.823
Maximum flit latency = 209
Slowest flit = 11369
Minimum fragmentation = 0
Average fragmentation = 0
Maximum fragmentation = 0
Minimum injected packet rate = 0.152 (at node 9)
Average injected packet rate = 0.165594
Maximum injected packet rate = 0.1725 (at node 5)
Minimum accepted packet rate = 0.146 (at node 10)
Average accepted packet rate = 0.164625
Maximum accepted packet rate = 0.1855 (at node 0)
Minimum injected flit rate = 0.152 (at node 9)
Average injected flit rate = 0.165594
Maximum injected flit rate = 0.1725 (at node 5)
Minimum accepted flit rate = 0.146 (at node 10)
Average accepted flit rate = 0.164625
Maximum accepted flit rate = 0.1855 (at node 0)
Total number of injected packets = 5299
Total number of injected flits = 5299
Average injected packet length = 1
Total number of accepted packets = 5268
Total number of accepted flits = 5268
Average accepted packet length = 1
Total in-flight flits = 299 (299 measured)
===== Time: 6000 =====
Class 0:
Minimum packet latency = 9
Average packet latency = 174.631
Maximum packet latency = 455
Minimum network latency = 10
Average network latency = 112.943
Maximum network latency = 235
Slowest packet = 7890
Minimum flit latency = 10
Average flit latency = 112.904
Maximum flit latency = 235
Slowest flit = 12901
Minimum fragmentation = 0
Average fragmentation = 0
Maximum fragmentation = 0
Minimum injected packet rate = 0.151333 (at node 9)
Average injected packet rate = 0.165604
Maximum injected packet rate = 0.170667 (at node 5)
Minimum accepted packet rate = 0.150333 (at node 4)
Average accepted packet rate = 0.164979
Maximum accepted packet rate = 0.174333 (at node 8)
Minimum injected flit rate = 0.151333 (at node 9)
Average injected flit rate = 0.165604
Maximum injected flit rate = 0.170667 (at node 5)
Minimum accepted flit rate = 0.150333 (at node 4)
Average accepted flit rate = 0.164979
Maximum accepted flit rate = 0.174333 (at node 8)
Total number of injected packets = 7949
Total number of injected flits = 7949
Average injected packet length = 1
Total number of accepted packets = 7919
Total number of accepted flits = 7919
Average accepted packet length = 1
Total in-flight flits = 297 (297 measured)
Draining remaining packets ...
Class 0:
Remaining flits: 15434 15464 15476 15485 15495 15502 15511 15512 15513 15516 [...] (274 flits)
Measured flits: 15434 15464 15476 15485 15495 15502 15511 15512 15513 15516 [...] (274 flits)
Class 0:
Remaining flits: 15434 15476 15502 15511 15512 15513 15516 15518 15522 15526 [...] (257 flits)
Measured flits: 15434 15476 15502 15511 15512 15513 15516 15518 15522 15526 [...] (257 flits)
Class 0:
Remaining flits: 15476 15512 15513 15535 15540 15541 15552 15557 15561 15563 [...] (228 flits)
Measured flits: 15476 15512 15513 15535 15540 15541 15552 15557 15561 15563 [...] (228 flits)
Class 0:
Remaining flits: 15512 15513 15535 15540 15541 15563 15569 15576 15577 15584 [...] (196 flits)
Measured flits: 15512 15513 15535 15540 15541 15563 15569 15576 15577 15584 [...] (196 flits)
Class 0:
Remaining flits: 15512 15541 15563 15590 15600 15606 15613 15614 15615 15617 [...] (175 flits)
Measured flits: 15512 15541 15563 15590 15600 15606 15613 15614 15615 15617 [...] (175 flits)
Class 0:
Remaining flits: 15600 15606 15614 15623 15627 15632 15634 15635 15644 15647 [...] (156 flits)
Measured flits: 15600 15606 15614 15623 15627 15632 15634 15635 15644 15647 [...] (156 flits)
Class 0:
Remaining flits: 15606 15623 15632 15655 15662 15665 15666 15667 15679 15681 [...] (129 flits)
Measured flits: 15606 15623 15632 15655 15662 15665 15666 15667 15679 15681 [...] (129 flits)
Class 0:
Remaining flits: 15623 15632 15655 15666 15679 15681 15682 15683 15685 15686 [...] (111 flits)
Measured flits: 15623 15632 15655 15666 15679 15681 15682 15683 15685 15686 [...] (111 flits)
Class 0:
Remaining flits: 15666 15682 15692 15696 15697 15706 15708 15712 15715 15722 [...] (84 flits)
Measured flits: 15666 15682 15692 15696 15697 15706 15708 15712 15715 15722 [...] (84 flits)
Class 0:
Remaining flits: 15697 15708 15728 15731 15738 15750 15752 15754 15755 15758 [...] (59 flits)
Measured flits: 15697 15708 15728 15731 15738 15750 15752 15754 15755 15758 [...] (59 flits)
Class 0:
Remaining flits: 15731 15750 15754 15755 15758 15766 15770 15771 15772 15773 [...] (48 flits)
Measured flits: 15731 15750 15754 15755 15758 15766 15770 15771 15772 15773 [...] (48 flits)
Class 0:
Remaining flits: 15731 15755 15766 15770 15771 15776 15782 15783 15793 15800 [...] (32 flits)
Measured flits: 15731 15755 15766 15770 15771 15776 15782 15783 15793 15800 [...] (32 flits)
Class 0:
Remaining flits: 15755 15771 15782 15793 15800 15805 15808 15813 15815 15817 [...] (21 flits)
Measured flits: 15755 15771 15782 15793 15800 15805 15808 15813 15815 15817 [...] (21 flits)
Class 0:
Remaining flits: 15782 15817 15818 15823 15825 15830 15832 15834 15836 15837 (10 flits)
Measured flits: 15782 15817 15818 15823 15825 15830 15832 15834 15836 15837 (10 flits)
Class 0:
Remaining flits: 15782 15825 15830 15834 15836 15837 (6 flits)
Measured flits: 15782 15825 15830 15834 15836 15837 (6 flits)
Class 0:
Remaining flits: 15782 15825 15830 15834 15836 15837 (6 flits)
Measured flits: 15782 15825 15830 15834 15836 15837 (6 flits)
Class 0:
Remaining flits: 15782 15825 15830 15834 15836 15837 (6 flits)
Measured flits: 15782 15825 15830 15834 15836 15837 (6 flits)
Class 0:
Remaining flits: 15782 15825 15830 15834 15836 15837 (6 flits)
Measured flits: 15782 15825 15830 15834 15836 15837 (6 flits)
Class 0:
Remaining flits: 15782 15825 15830 15834 15836 15837 (6 flits)
Measured flits: 15782 15825 15830 15834 15836 15837 (6 flits)
Class 0:
Remaining flits: 15782 15825 15830 15834 15836 15837 (6 flits)
Measured flits: 15782 15825 15830 15834 15836 15837 (6 flits)
Class 0:
Remaining flits: 15782 15825 15830 15834 15836 15837 (6 flits)
Measured flits: 15782 15825 15830 15834 15836 15837 (6 flits)
Class 0:
Remaining flits: 15782 15825 15830 15834 15836 15837 (6 flits)
Measured flits: 15782 15825 15830 15834 15836 15837 (6 flits)
Class 0:
Remaining flits: 15782 15825 15830 15834 15836 15837 (6 flits)
Measured flits: 15782 15825 15830 15834 15836 15837 (6 flits)
Class 0:
Remaining flits: 15782 15825 15830 15834 15836 15837 (6 flits)
Measured flits: 15782 15825 15830 15834 15836 15837 (6 flits)
Class 0:
Remaining flits: 15782 15825 15830 15834 15836 15837 (6 flits)
Measured flits: 15782 15825 15830 15834 15836 15837 (6 flits)
Class 0:
Remaining flits: 15782 15825 15830 15834 15836 15837 (6 flits)
Measured flits: 15782 15825 15830 15834 15836 15837 (6 flits)
Class 0:
Remaining flits: 15782 15825 15830 15834 15836 15837 (6 flits)
Measured flits: 15782 15825 15830 15834 15836 15837 (6 flits)
Class 0:
Remaining flits: 15782 15825 15830 15834 15836 15837 (6 flits)
Measured flits: 15782 15825 15830 15834 15836 15837 (6 flits)
Class 0:
Remaining flits: 15782 15825 15830 15834 15836 15837 (6 flits)
Measured flits: 15782 15825 15830 15834 15836 15837 (6 flits)
Class 0:
Remaining flits: 15782 15825 15830 15834 15836 15837 (6 flits)
Measured flits: 15782 15825 15830 15834 15836 15837 (6 flits)
Class 0:
Remaining flits: 15782 15825 15830 15834 15836 15837 (6 flits)
Measured flits: 15782 15825 15830 15834 15836 15837 (6 flits)
Class 0:
Remaining flits: 15782 15825 15830 15834 15836 15837 (6 flits)
Measured flits: 15782 15825 15830 15834 15836 15837 (6 flits)
Class 0:
Remaining flits: 15782 15825 15830 15834 15836 15837 (6 flits)
Measured flits: 15782 15825 15830 15834 15836 15837 (6 flits)
Class 0:
Remaining flits: 15782 15825 15830 15834 15836 15837 (6 flits)
Measured flits: 15782 15825 15830 15834 15836 15837 (6 flits)
Class 0:
Remaining flits: 15782 15825 15830 15834 15836 15837 (6 flits)
Measured flits: 15782 15825 15830 15834 15836 15837 (6 flits)
Class 0:
Remaining flits: 15782 15825 15830 15834 15836 15837 (6 flits)
Measured flits: 15782 15825 15830 15834 15836 15837 (6 flits)
Class 0:
Remaining flits: 15782 15825 15830 15834 15836 15837 (6 flits)
Measured flits: 15782 15825 15830 15834 15836 15837 (6 flits)
Class 0:
Remaining flits: 15782 15825 15830 15834 15836 15837 (6 flits)
Measured flits: 15782 15825 15830 15834 15836 15837 (6 flits)
Class 0:
Remaining flits: 15782 15825 15830 15834 15836 15837 (6 flits)
Measured flits: 15782 15825 15830 15834 15836 15837 (6 flits)
Class 0:
Remaining flits: 15782 15825 15830 15834 15836 15837 (6 flits)
Measured flits: 15782 15825 15830 15834 15836 15837 (6 flits)
Class 0:
Remaining flits: 15782 15825 15830 15834 15836 15837 (6 flits)
Measured flits: 15782 15825 15830 15834 15836 15837 (6 flits)
Class 0:
Remaining flits: 15782 15825 15830 15834 15836 15837 (6 flits)
Measured flits: 15782 15825 15830 15834 15836 15837 (6 flits)
Class 0:
Remaining flits: 15782 15825 15830 15834 15836 15837 (6 flits)
Measured flits: 15782 15825 15830 15834 15836 15837 (6 flits)
Class 0:
Remaining flits: 15782 15825 15830 15834 15836 15837 (6 flits)
Measured flits: 15782 15825 15830 15834 15836 15837 (6 flits)
Class 0:
Remaining flits: 15782 15825 15830 15834 15836 15837 (6 flits)
Measured flits: 15782 15825 15830 15834 15836 15837 (6 flits)
Class 0:
Remaining flits: 15782 15825 15830 15834 15836 15837 (6 flits)
Measured flits: 15782 15825 15830 15834 15836 15837 (6 flits)
Class 0:
Remaining flits: 15782 15825 15830 15834 15836 15837 (6 flits)
Measured flits: 15782 15825 15830 15834 15836 15837 (6 flits)
Class 0:
Remaining flits: 15782 15825 15830 15834 15836 15837 (6 flits)
Measured flits: 15782 15825 15830 15834 15836 15837 (6 flits)
Class 0:
Remaining flits: 15782 15825 15830 15834 15836 15837 (6 flits)
Measured flits: 15782 15825 15830 15834 15836 15837 (6 flits)
Class 0:
Remaining flits: 15782 15825 15830 15834 15836 15837 (6 flits)
Measured flits: 15782 15825 15830 15834 15836 15837 (6 flits)
Class 0:
Remaining flits: 15782 15825 15830 15834 15836 15837 (6 flits)
Measured flits: 15782 15825 15830 15834 15836 15837 (6 flits)
Class 0:
Remaining flits: 15782 15825 15830 15834 15836 15837 (6 flits)
Measured flits: 15782 15825 15830 15834 15836 15837 (6 flits)
Class 0:
Remaining flits: 15782 15825 15830 15834 15836 15837 (6 flits)
Measured flits: 15782 15825 15830 15834 15836 15837 (6 flits)
Class 0:
Remaining flits: 15782 15825 15830 15834 15836 15837 (6 flits)
Measured flits: 15782 15825 15830 15834 15836 15837 (6 flits)
Class 0:
Remaining flits: 15782 15825 15830 15834 15836 15837 (6 flits)
Measured flits: 15782 15825 15830 15834 15836 15837 (6 flits)
Class 0:
Remaining flits: 15782 15825 15830 15834 15836 15837 (6 flits)
Measured flits: 15782 15825 15830 15834 15836 15837 (6 flits)
Class 0:
Remaining flits: 15782 15825 15830 15834 15836 15837 (6 flits)
Measured flits: 15782 15825 15830 15834 15836 15837 (6 flits)
Class 0:
Remaining flits: 15782 15825 15830 15834 15836 15837 (6 flits)
Measured flits: 15782 15825 15830 15834 15836 15837 (6 flits)
Class 0:
Remaining flits: 15782 15825 15830 15834 15836 15837 (6 flits)
Measured flits: 15782 15825 15830 15834 15836 15837 (6 flits)
Class 0:
Remaining flits: 15782 15825 15830 15834 15836 15837 (6 flits)
Measured flits: 15782 15825 15830 15834 15836 15837 (6 flits)
Class 0:
Remaining flits: 15782 15825 15830 15834 15836 15837 (6 flits)
Measured flits: 15782 15825 15830 15834 15836 15837 (6 flits)
Class 0:
Remaining flits: 15782 15825 15830 15834 15836 15837 (6 flits)
Measured flits: 15782 15825 15830 15834 15836 15837 (6 flits)
Class 0:
Remaining flits: 15782 15825 15830 15834 15836 15837 (6 flits)
Measured flits: 15782 15825 15830 15834 15836 15837 (6 flits)
Class 0:
Remaining flits: 15782 15825 15830 15834 15836 15837 (6 flits)
Measured flits: 15782 15825 15830 15834 15836 15837 (6 flits)
Class 0:
Remaining flits: 15782 15825 15830 15834 15836 15837 (6 flits)
Measured flits: 15782 15825 15830 15834 15836 15837 (6 flits)
Class 0:
Remaining flits: 15782 15825 15830 15834 15836 15837 (6 flits)
Measured flits: 15782 15825 15830 15834 15836 15837 (6 flits)
Class 0:
Remaining flits: 15782 15825 15830 15834 15836 15837 (6 flits)
Measured flits: 15782 15825 15830 15834 15836 15837 (6 flits)
Class 0:
Remaining flits: 15782 15825 15830 15834 15836 15837 (6 flits)
Measured flits: 15782 15825 15830 15834 15836 15837 (6 flits)
Class 0:
Remaining flits: 15782 15825 15830 15834 15836 15837 (6 flits)
Measured flits: 15782 15825 15830 15834 15836 15837 (6 flits)
Class 0:
Remaining flits: 15782 15825 15830 15834 15836 15837 (6 flits)
Measured flits: 15782 15825 15830 15834 15836 15837 (6 flits)
Class 0:
Remaining flits: 15782 15825 15830 15834 15836 15837 (6 flits)
Measured flits: 15782 15825 15830 15834 15836 15837 (6 flits)
Class 0:
Remaining flits: 15782 15825 15830 15834 15836 15837 (6 flits)
Measured flits: 15782 15825 15830 15834 15836 15837 (6 flits)
Class 0:
Remaining flits: 15782 15825 15830 15834 15836 15837 (6 flits)
Measured flits: 15782 15825 15830 15834 15836 15837 (6 flits)
Class 0:
Remaining flits: 15782 15825 15830 15834 15836 15837 (6 flits)
Measured flits: 15782 15825 15830 15834 15836 15837 (6 flits)
Class 0:
Remaining flits: 15782 15825 15830 15834 15836 15837 (6 flits)
Measured flits: 15782 15825 15830 15834 15836 15837 (6 flits)
Class 0:
Remaining flits: 15782 15825 15830 15834 15836 15837 (6 flits)
Measured flits: 15782 15825 15830 15834 15836 15837 (6 flits)
Class 0:
Remaining flits: 15782 15825 15830 15834 15836 15837 (6 flits)
Measured flits: 15782 15825 15830 15834 15836 15837 (6 flits)
Class 0:
Remaining flits: 15782 15825 15830 15834 15836 15837 (6 flits)
Measured flits: 15782 15825 15830 15834 15836 15837 (6 flits)
Class 0:
Remaining flits: 15782 15825 15830 15834 15836 15837 (6 flits)
Measured flits: 15782 15825 15830 15834 15836 15837 (6 flits)
Class 0:
Remaining flits: 15782 15825 15830 15834 15836 15837 (6 flits)
Measured flits: 15782 15825 15830 15834 15836 15837 (6 flits)
Class 0:
Remaining flits: 15782 15825 15830 15834 15836 15837 (6 flits)
Measured flits: 15782 15825 15830 15834 15836 15837 (6 flits)
Class 0:
Remaining flits: 15782 15825 15830 15834 15836 15837 (6 flits)
Measured flits: 15782 15825 15830 15834 15836 15837 (6 flits)
Class 0:
Remaining flits: 15782 15825 15830 15834 15836 15837 (6 flits)
Measured flits: 15782 15825 15830 15834 15836 15837 (6 flits)
Class 0:
Remaining flits: 15782 15825 15830 15834 15836 15837 (6 flits)
Measured flits: 15782 15825 15830 15834 15836 15837 (6 flits)
Class 0:
Remaining flits: 15782 15825 15830 15834 15836 15837 (6 flits)
Measured flits: 15782 15825 15830 15834 15836 15837 (6 flits)
Class 0:
Remaining flits: 15782 15825 15830 15834 15836 15837 (6 flits)
Measured flits: 15782 15825 15830 15834 15836 15837 (6 flits)
Class 0:
Remaining flits: 15782 15825 15830 15834 15836 15837 (6 flits)
Measured flits: 15782 15825 15830 15834 15836 15837 (6 flits)
Class 0:
Remaining flits: 15782 15825 15830 15834 15836 15837 (6 flits)
Measured flits: 15782 15825 15830 15834 15836 15837 (6 flits)
Class 0:
Remaining flits: 15782 15825 15830 15834 15836 15837 (6 flits)
Measured flits: 15782 15825 15830 15834 15836 15837 (6 flits)
Class 0:
Remaining flits: 15782 15825 15830 15834 15836 15837 (6 flits)
Measured flits: 15782 15825 15830 15834 15836 15837 (6 flits)
Class 0:
Remaining flits: 15782 15825 15830 15834 15836 15837 (6 flits)
Measured flits: 15782 15825 15830 15834 15836 15837 (6 flits)
Class 0:
Remaining flits: 15782 15825 15830 15834 15836 15837 (6 flits)
Measured flits: 15782 15825 15830 15834 15836 15837 (6 flits)
Class 0:
Remaining flits: 15782 15825 15830 15834 15836 15837 (6 flits)
Measured flits: 15782 15825 15830 15834 15836 15837 (6 flits)
Class 0:
Remaining flits: 15782 15825 15830 15834 15836 15837 (6 flits)
Measured flits: 15782 15825 15830 15834 15836 15837 (6 flits)
Class 0:
Remaining flits: 15782 15825 15830 15834 15836 15837 (6 flits)
Measured flits: 15782 15825 15830 15834 15836 15837 (6 flits)
Class 0:
Remaining flits: 15782 15825 15830 15834 15836 15837 (6 flits)
Measured flits: 15782 15825 15830 15834 15836 15837 (6 flits)
Class 0:
Remaining flits: 15782 15825 15830 15834 15836 15837 (6 flits)
Measured flits: 15782 15825 15830 15834 15836 15837 (6 flits)
Class 0:
Remaining flits: 15782 15825 15830 15834 15836 15837 (6 flits)
Measured flits: 15782 15825 15830 15834 15836 15837 (6 flits)
Class 0:
Remaining flits: 15782 15825 15830 15834 15836 15837 (6 flits)
Measured flits: 15782 15825 15830 15834 15836 15837 (6 flits)
Class 0:
Remaining flits: 15782 15825 15830 15834 15836 15837 (6 flits)
Measured flits: 15782 15825 15830 15834 15836 15837 (6 flits)
Class 0:
Remaining flits: 15782 15825 15830 15834 15836 15837 (6 flits)
Measured flits: 15782 15825 15830 15834 15836 15837 (6 flits)
Time taken is 7000 cycles
====== Traffic class 0 ======

Total number of flits generated = 15838, changed lanes = 15653
Overall minimum packet latency = 9 (1 samples)
Overall average packet latency = 176.419 (1 samples)
Overall maximum packet latency = 455 (1 samples)
Overall minimum network latency = 10 (1 samples)
Overall average network latency = 113.208 (1 samples)
Overall maximum network latency = 235 (1 samples)
Overall minimum flit latency = 10 (1 samples)
Overall average flit latency = 113.162 (1 samples)
Overall maximum flit latency = 235 (1 samples)
Overall minimum fragmentation = 0 (1 samples)
Overall average fragmentation = 0 (1 samples)
Overall maximum fragmentation = 0 (1 samples)
Overall minimum injected packet rate = 0.151333 (1 samples)
Overall average injected packet rate = 0.165604 (1 samples)
Overall maximum injected packet rate = 0.170667 (1 samples)
Overall minimum accepted packet rate = 0.150333 (1 samples)
Overall average accepted packet rate = 0.164979 (1 samples)
Overall maximum accepted packet rate = 0.174333 (1 samples)
Overall minimum injected flit rate = 0.151333 (1 samples)
Overall average injected flit rate = 0.165604 (1 samples)
Overall maximum injected flit rate = 0.170667 (1 samples)
Overall minimum accepted flit rate = 0.150333 (1 samples)
Overall average accepted flit rate = 0.164979 (1 samples)
Overall maximum accepted flit rate = 0.174333 (1 samples)
Overall average injected packet size = 1 (1 samples)
Overall average accepted packet size = 1 (1 samples)
Overall average hops = 2.99824 (1 samples)
Overall throughput of the network (flits/cycle) = 5.27733
Overall throughput of the network (packets/cycle) = 5.27733
Total run time 2000.36
