make: Nothing to be done for `all'.
Master: Running timer....
Master: Running SRC....
BEGIN Configuration File: ./examples/bitrev
// Topology

topology = torus;
k = 4;
n = 2;

// Routing
routing_function = dim_order;

// Flow control
num_vcs     = 4;
vc_buf_size = 4;
wait_for_tail_credit = 0;

// Router architecture
vc_allocator = islip;
sw_allocator = islip;
alloc_iters  = 1;

credit_delay   = 1;
routing_delay  = 1;
vc_alloc_delay = 1;
sw_alloc_delay = 1;

input_speedup     = 1;
output_speedup    = 1;
internal_speedup  = 1.0;

vc_busy_when_full = 0;

// Traffic
traffic = uniform;
packet_size = 1;

// Simulation
sim_type = throughput;

injection_rate = 0.07;

END Configuration File: ./examples/bitrev
===== Time: 1000 =====
Class 0:
Minimum packet latency = 8
Average packet latency = 35.6664
Maximum packet latency = 76
Minimum network latency = 9
Average network latency = 36.6664
Maximum network latency = 77
Slowest packet = 680
Minimum flit latency = 9
Average flit latency = 36.6664
Maximum flit latency = 77
Slowest flit = 680
Minimum fragmentation = 0
Average fragmentation = 0
Maximum fragmentation = 0
Minimum injected packet rate = 0.058 (at node 8)
Average injected packet rate = 0.068125
Maximum injected packet rate = 0.077 (at node 1)
Minimum accepted packet rate = 0.058 (at node 10)
Average accepted packet rate = 0.066125
Maximum accepted packet rate = 0.075 (at node 3)
Minimum injected flit rate = 0.058 (at node 8)
Average injected flit rate = 0.068125
Maximum injected flit rate = 0.077 (at node 1)
Minimum accepted flit rate = 0.058 (at node 10)
Average accepted flit rate = 0.066125
Maximum accepted flit rate = 0.075 (at node 3)
Total number of injected packets = 1090
Total number of injected flits = 1090
Average injected packet length = 1
Total number of accepted packets = 1058
Total number of accepted flits = 1058
Average accepted packet length = 1
Total in-flight flits = 32 (0 measured)
===== Time: 2000 =====
Class 0:
Minimum packet latency = 8
Average packet latency = 35.7401
Maximum packet latency = 255
Minimum network latency = 9
Average network latency = 36.7401
Maximum network latency = 256
Slowest packet = 1095
Minimum flit latency = 9
Average flit latency = 36.7401
Maximum flit latency = 256
Slowest flit = 1095
Minimum fragmentation = 0
Average fragmentation = 0
Maximum fragmentation = 0
Minimum injected packet rate = 0.0565 (at node 8)
Average injected packet rate = 0.0672187
Maximum injected packet rate = 0.075 (at node 4)
Minimum accepted packet rate = 0.0565 (at node 14)
Average accepted packet rate = 0.066
Maximum accepted packet rate = 0.0815 (at node 15)
Minimum injected flit rate = 0.0565 (at node 8)
Average injected flit rate = 0.0672187
Maximum injected flit rate = 0.075 (at node 4)
Minimum accepted flit rate = 0.0565 (at node 14)
Average accepted flit rate = 0.066
Maximum accepted flit rate = 0.0815 (at node 15)
Total number of injected packets = 2151
Total number of injected flits = 2151
Average injected packet length = 1
Total number of accepted packets = 2112
Total number of accepted flits = 2112
Average accepted packet length = 1
Total in-flight flits = 39 (0 measured)
===== Time: 3000 =====
Class 0:
Minimum packet latency = 8
Average packet latency = 36.0518
Maximum packet latency = 102
Minimum network latency = 9
Average network latency = 37.0518
Maximum network latency = 103
Slowest packet = 2906
Minimum flit latency = 9
Average flit latency = 37.0518
Maximum flit latency = 103
Slowest flit = 2906
Minimum fragmentation = 0
Average fragmentation = 0
Maximum fragmentation = 0
Minimum injected packet rate = 0.064 (at node 4)
Average injected packet rate = 0.0718125
Maximum injected packet rate = 0.081 (at node 6)
Minimum accepted packet rate = 0.059 (at node 4)
Average accepted packet rate = 0.0711875
Maximum accepted packet rate = 0.084 (at node 11)
Minimum injected flit rate = 0.064 (at node 4)
Average injected flit rate = 0.0718125
Maximum injected flit rate = 0.081 (at node 6)
Minimum accepted flit rate = 0.059 (at node 4)
Average accepted flit rate = 0.0711875
Maximum accepted flit rate = 0.084 (at node 11)
Total number of injected packets = 1149
Total number of injected flits = 1149
Average injected packet length = 1
Total number of accepted packets = 1139
Total number of accepted flits = 1139
Average accepted packet length = 1
Total in-flight flits = 49 (0 measured)
===== Time: 4000 =====
Class 0:
Minimum packet latency = 8
Average packet latency = 35.8818
Maximum packet latency = 249
Minimum network latency = 9
Average network latency = 36.8818
Maximum network latency = 250
Slowest packet = 3895
Minimum flit latency = 9
Average flit latency = 37.2275
Maximum flit latency = 250
Slowest flit = 3895
Minimum fragmentation = 0
Average fragmentation = 0
Maximum fragmentation = 0
Minimum injected packet rate = 0.051 (at node 0)
Average injected packet rate = 0.067875
Maximum injected packet rate = 0.083 (at node 15)
Minimum accepted packet rate = 0.054 (at node 11)
Average accepted packet rate = 0.068125
Maximum accepted packet rate = 0.081 (at node 0)
Minimum injected flit rate = 0.051 (at node 0)
Average injected flit rate = 0.067875
Maximum injected flit rate = 0.083 (at node 15)
Minimum accepted flit rate = 0.054 (at node 11)
Average accepted flit rate = 0.068125
Maximum accepted flit rate = 0.081 (at node 0)
Total number of injected packets = 1086
Total number of injected flits = 1086
Average injected packet length = 1
Total number of accepted packets = 1090
Total number of accepted flits = 1090
Average accepted packet length = 1
Total in-flight flits = 45 (45 measured)
===== Time: 5000 =====
Class 0:
Minimum packet latency = 8
Average packet latency = 35.8742
Maximum packet latency = 249
Minimum network latency = 9
Average network latency = 36.8742
Maximum network latency = 250
Slowest packet = 3895
Minimum flit latency = 9
Average flit latency = 37.0479
Maximum flit latency = 250
Slowest flit = 3895
Minimum fragmentation = 0
Average fragmentation = 0
Maximum fragmentation = 0
Minimum injected packet rate = 0.059 (at node 0)
Average injected packet rate = 0.0675625
Maximum injected packet rate = 0.0795 (at node 15)
Minimum accepted packet rate = 0.058 (at node 10)
Average accepted packet rate = 0.067875
Maximum accepted packet rate = 0.0825 (at node 0)
Minimum injected flit rate = 0.059 (at node 0)
Average injected flit rate = 0.0675625
Maximum injected flit rate = 0.0795 (at node 15)
Minimum accepted flit rate = 0.058 (at node 10)
Average accepted flit rate = 0.067875
Maximum accepted flit rate = 0.0825 (at node 0)
Total number of injected packets = 2162
Total number of injected flits = 2162
Average injected packet length = 1
Total number of accepted packets = 2172
Total number of accepted flits = 2172
Average accepted packet length = 1
Total in-flight flits = 39 (39 measured)
===== Time: 6000 =====
Class 0:
Minimum packet latency = 7
Average packet latency = 36.0517
Maximum packet latency = 249
Minimum network latency = 8
Average network latency = 37.0517
Maximum network latency = 250
Slowest packet = 3895
Minimum flit latency = 8
Average flit latency = 37.1642
Maximum flit latency = 250
Slowest flit = 3895
Minimum fragmentation = 0
Average fragmentation = 0
Maximum fragmentation = 0
Minimum injected packet rate = 0.0623333 (at node 0)
Average injected packet rate = 0.0681875
Maximum injected packet rate = 0.08 (at node 15)
Minimum accepted packet rate = 0.0606667 (at node 10)
Average accepted packet rate = 0.0682708
Maximum accepted packet rate = 0.0763333 (at node 7)
Minimum injected flit rate = 0.0623333 (at node 0)
Average injected flit rate = 0.0681875
Maximum injected flit rate = 0.08 (at node 15)
Minimum accepted flit rate = 0.0606667 (at node 10)
Average accepted flit rate = 0.0682708
Maximum accepted flit rate = 0.0763333 (at node 7)
Total number of injected packets = 3273
Total number of injected flits = 3273
Average injected packet length = 1
Total number of accepted packets = 3277
Total number of accepted flits = 3277
Average accepted packet length = 1
Total in-flight flits = 45 (45 measured)
Draining remaining packets ...
Class 0:
Remaining flits: 6540 6541 6544 6547 6548 6549 6550 6551 6552 6553 [...] (27 flits)
Measured flits: 6540 6541 6544 6547 6548 6549 6550 6551 6552 6553 [...] (27 flits)
Class 0:
Remaining flits: 6540 6541 6544 6550 6551 6554 6557 6558 6560 6561 [...] (19 flits)
Measured flits: 6540 6541 6544 6550 6551 6554 6557 6558 6560 6561 [...] (19 flits)
Class 0:
Remaining flits: 6540 6544 6554 6560 6563 6567 6568 6570 6571 6572 (10 flits)
Measured flits: 6540 6544 6554 6560 6563 6567 6568 6570 6571 6572 (10 flits)
Class 0:
Remaining flits: 6560 6571 (2 flits)
Measured flits: 6560 6571 (2 flits)
Class 0:
Remaining flits: (0 flits)
Measured flits: (0 flits)
Class 0:
Remaining flits: (0 flits)
Measured flits: (0 flits)
Class 0:
Remaining flits: (0 flits)
Measured flits: (0 flits)
Class 0:
Remaining flits: (0 flits)
Measured flits: (0 flits)
Class 0:
Remaining flits: (0 flits)
Measured flits: (0 flits)
Class 0:
Remaining flits: (0 flits)
Measured flits: (0 flits)
Class 0:
Remaining flits: (0 flits)
Measured flits: (0 flits)
Class 0:
Remaining flits: (0 flits)
Measured flits: (0 flits)
Class 0:
Remaining flits: (0 flits)
Measured flits: (0 flits)
Class 0:
Remaining flits: (0 flits)
Measured flits: (0 flits)
Class 0:
Remaining flits: (0 flits)
Measured flits: (0 flits)
Class 0:
Remaining flits: (0 flits)
Measured flits: (0 flits)
Class 0:
Remaining flits: (0 flits)
Measured flits: (0 flits)
Class 0:
Remaining flits: (0 flits)
Measured flits: (0 flits)
Class 0:
Remaining flits: (0 flits)
Measured flits: (0 flits)
Class 0:
Remaining flits: (0 flits)
Measured flits: (0 flits)
Class 0:
Remaining flits: (0 flits)
Measured flits: (0 flits)
Class 0:
Remaining flits: (0 flits)
Measured flits: (0 flits)
Class 0:
Remaining flits: (0 flits)
Measured flits: (0 flits)
Class 0:
Remaining flits: (0 flits)
Measured flits: (0 flits)
Class 0:
Remaining flits: (0 flits)
Measured flits: (0 flits)
Class 0:
Remaining flits: (0 flits)
Measured flits: (0 flits)
Class 0:
Remaining flits: (0 flits)
Measured flits: (0 flits)
Class 0:
Remaining flits: (0 flits)
Measured flits: (0 flits)
Class 0:
Remaining flits: (0 flits)
Measured flits: (0 flits)
Class 0:
Remaining flits: (0 flits)
Measured flits: (0 flits)
Class 0:
Remaining flits: (0 flits)
Measured flits: (0 flits)
Class 0:
Remaining flits: (0 flits)
Measured flits: (0 flits)
Class 0:
Remaining flits: (0 flits)
Measured flits: (0 flits)
Class 0:
Remaining flits: (0 flits)
Measured flits: (0 flits)
Class 0:
Remaining flits: (0 flits)
Measured flits: (0 flits)
Class 0:
Remaining flits: (0 flits)
Measured flits: (0 flits)
Class 0:
Remaining flits: (0 flits)
Measured flits: (0 flits)
Class 0:
Remaining flits: (0 flits)
Measured flits: (0 flits)
Class 0:
Remaining flits: (0 flits)
Measured flits: (0 flits)
Class 0:
Remaining flits: (0 flits)
Measured flits: (0 flits)
Class 0:
Remaining flits: (0 flits)
Measured flits: (0 flits)
Class 0:
Remaining flits: (0 flits)
Measured flits: (0 flits)
Class 0:
Remaining flits: (0 flits)
Measured flits: (0 flits)
Class 0:
Remaining flits: (0 flits)
Measured flits: (0 flits)
Class 0:
Remaining flits: (0 flits)
Measured flits: (0 flits)
Class 0:
Remaining flits: (0 flits)
Measured flits: (0 flits)
Class 0:
Remaining flits: (0 flits)
Measured flits: (0 flits)
Class 0:
Remaining flits: (0 flits)
Measured flits: (0 flits)
Class 0:
Remaining flits: (0 flits)
Measured flits: (0 flits)
Class 0:
Remaining flits: (0 flits)
Measured flits: (0 flits)
Class 0:
Remaining flits: (0 flits)
Measured flits: (0 flits)
Class 0:
Remaining flits: (0 flits)
Measured flits: (0 flits)
Class 0:
Remaining flits: (0 flits)
Measured flits: (0 flits)
Class 0:
Remaining flits: (0 flits)
Measured flits: (0 flits)
Class 0:
Remaining flits: (0 flits)
Measured flits: (0 flits)
Class 0:
Remaining flits: (0 flits)
Measured flits: (0 flits)
Class 0:
Remaining flits: (0 flits)
Measured flits: (0 flits)
Class 0:
Remaining flits: (0 flits)
Measured flits: (0 flits)
Class 0:
Remaining flits: (0 flits)
Measured flits: (0 flits)
Class 0:
Remaining flits: (0 flits)
Measured flits: (0 flits)
Class 0:
Remaining flits: (0 flits)
Measured flits: (0 flits)
Class 0:
Remaining flits: (0 flits)
Measured flits: (0 flits)
Class 0:
Remaining flits: (0 flits)
Measured flits: (0 flits)
Class 0:
Remaining flits: (0 flits)
Measured flits: (0 flits)
Class 0:
Remaining flits: (0 flits)
Measured flits: (0 flits)
Class 0:
Remaining flits: (0 flits)
Measured flits: (0 flits)
Class 0:
Remaining flits: (0 flits)
Measured flits: (0 flits)
Class 0:
Remaining flits: (0 flits)
Measured flits: (0 flits)
Class 0:
Remaining flits: (0 flits)
Measured flits: (0 flits)
Class 0:
Remaining flits: (0 flits)
Measured flits: (0 flits)
Class 0:
Remaining flits: (0 flits)
Measured flits: (0 flits)
Class 0:
Remaining flits: (0 flits)
Measured flits: (0 flits)
Class 0:
Remaining flits: (0 flits)
Measured flits: (0 flits)
Class 0:
Remaining flits: (0 flits)
Measured flits: (0 flits)
Class 0:
Remaining flits: (0 flits)
Measured flits: (0 flits)
Class 0:
Remaining flits: (0 flits)
Measured flits: (0 flits)
Class 0:
Remaining flits: (0 flits)
Measured flits: (0 flits)
Class 0:
Remaining flits: (0 flits)
Measured flits: (0 flits)
Class 0:
Remaining flits: (0 flits)
Measured flits: (0 flits)
Class 0:
Remaining flits: (0 flits)
Measured flits: (0 flits)
Class 0:
Remaining flits: (0 flits)
Measured flits: (0 flits)
Class 0:
Remaining flits: (0 flits)
Measured flits: (0 flits)
Class 0:
Remaining flits: (0 flits)
Measured flits: (0 flits)
Class 0:
Remaining flits: (0 flits)
Measured flits: (0 flits)
Class 0:
Remaining flits: (0 flits)
Measured flits: (0 flits)
Class 0:
Remaining flits: (0 flits)
Measured flits: (0 flits)
Class 0:
Remaining flits: (0 flits)
Measured flits: (0 flits)
Class 0:
Remaining flits: (0 flits)
Measured flits: (0 flits)
Class 0:
Remaining flits: (0 flits)
Measured flits: (0 flits)
Class 0:
Remaining flits: (0 flits)
Measured flits: (0 flits)
Class 0:
Remaining flits: (0 flits)
Measured flits: (0 flits)
Class 0:
Remaining flits: (0 flits)
Measured flits: (0 flits)
Class 0:
Remaining flits: (0 flits)
Measured flits: (0 flits)
Class 0:
Remaining flits: (0 flits)
Measured flits: (0 flits)
Class 0:
Remaining flits: (0 flits)
Measured flits: (0 flits)
Class 0:
Remaining flits: (0 flits)
Measured flits: (0 flits)
Class 0:
Remaining flits: (0 flits)
Measured flits: (0 flits)
Class 0:
Remaining flits: (0 flits)
Measured flits: (0 flits)
Class 0:
Remaining flits: (0 flits)
Measured flits: (0 flits)
Class 0:
Remaining flits: (0 flits)
Measured flits: (0 flits)
Class 0:
Remaining flits: (0 flits)
Measured flits: (0 flits)
Time taken is 7000 cycles
====== Traffic class 0 ======

Total number of flits generated = 6573, changed lanes = 6273
Overall minimum packet latency = 7 (1 samples)
Overall average packet latency = 36.1118 (1 samples)
Overall maximum packet latency = 249 (1 samples)
Overall minimum network latency = 8 (1 samples)
Overall average network latency = 37.1118 (1 samples)
Overall maximum network latency = 250 (1 samples)
Overall minimum flit latency = 8 (1 samples)
Overall average flit latency = 37.2219 (1 samples)
Overall maximum flit latency = 250 (1 samples)
Overall minimum fragmentation = 0 (1 samples)
Overall average fragmentation = 0 (1 samples)
Overall maximum fragmentation = 0 (1 samples)
Overall minimum injected packet rate = 0.0623333 (1 samples)
Overall average injected packet rate = 0.0681875 (1 samples)
Overall maximum injected packet rate = 0.08 (1 samples)
Overall minimum accepted packet rate = 0.0606667 (1 samples)
Overall average accepted packet rate = 0.0682708 (1 samples)
Overall maximum accepted packet rate = 0.0763333 (1 samples)
Overall minimum injected flit rate = 0.0623333 (1 samples)
Overall average injected flit rate = 0.0681875 (1 samples)
Overall maximum injected flit rate = 0.08 (1 samples)
Overall minimum accepted flit rate = 0.0606667 (1 samples)
Overall average accepted flit rate = 0.0682708 (1 samples)
Overall maximum accepted flit rate = 0.0763333 (1 samples)
Overall average injected packet size = 1 (1 samples)
Overall average accepted packet size = 1 (1 samples)
Overall average hops = 2.98747 (1 samples)
Overall throughput of the network (flits/cycle) = 2.191
Overall throughput of the network (packets/cycle) = 2.191
Total run time 11.8988
