make: Nothing to be done for `all'.
Master: Running timer....
Master: Running SRC....
BEGIN Configuration File: ./examples/bitrev
// Topology

topology = torus;
k = 4;
n = 2;

// Routing
routing_function = dim_order;

// Flow control
num_vcs     = 4;
vc_buf_size = 4;
wait_for_tail_credit = 0;

// Router architecture
vc_allocator = islip;
sw_allocator = islip;
alloc_iters  = 1;

credit_delay   = 1;
routing_delay  = 1;
vc_alloc_delay = 1;
sw_alloc_delay = 1;

input_speedup     = 1;
output_speedup    = 1;
internal_speedup  = 1.0;

vc_busy_when_full = 0;

// Traffic
traffic = uniform;
packet_size = 1;

// Simulation
sim_type = throughput;

injection_rate = 0.31;

END Configuration File: ./examples/bitrev
===== Time: 1000 =====
Class 0:
Minimum packet latency = 10
Average packet latency = 253.425
Maximum packet latency = 522
Minimum network latency = 11
Average network latency = 118.705
Maximum network latency = 184
Slowest packet = 349
Minimum flit latency = 11
Average flit latency = 118.705
Maximum flit latency = 184
Slowest flit = 1233
Minimum fragmentation = 0
Average fragmentation = 0
Maximum fragmentation = 0
Minimum injected packet rate = 0.18 (at node 0)
Average injected packet rate = 0.181062
Maximum injected packet rate = 0.183 (at node 8)
Minimum accepted packet rate = 0.139 (at node 4)
Average accepted packet rate = 0.159688
Maximum accepted packet rate = 0.175 (at node 8)
Minimum injected flit rate = 0.18 (at node 0)
Average injected flit rate = 0.181062
Maximum injected flit rate = 0.183 (at node 8)
Minimum accepted flit rate = 0.139 (at node 4)
Average accepted flit rate = 0.159688
Maximum accepted flit rate = 0.175 (at node 8)
Total number of injected packets = 2897
Total number of injected flits = 2897
Average injected packet length = 1
Total number of accepted packets = 2555
Total number of accepted flits = 2555
Average accepted packet length = 1
Total in-flight flits = 357 (0 measured)
===== Time: 2000 =====
Class 0:
Minimum packet latency = 10
Average packet latency = 481.745
Maximum packet latency = 995
Minimum network latency = 11
Average network latency = 123.37
Maximum network latency = 208
Slowest packet = 349
Minimum flit latency = 11
Average flit latency = 123.37
Maximum flit latency = 208
Slowest flit = 3927
Minimum fragmentation = 0
Average fragmentation = 0
Maximum fragmentation = 0
Minimum injected packet rate = 0.173 (at node 0)
Average injected packet rate = 0.173687
Maximum injected packet rate = 0.1745 (at node 8)
Minimum accepted packet rate = 0.14 (at node 4)
Average accepted packet rate = 0.163
Maximum accepted packet rate = 0.1775 (at node 8)
Minimum injected flit rate = 0.173 (at node 0)
Average injected flit rate = 0.173687
Maximum injected flit rate = 0.1745 (at node 8)
Minimum accepted flit rate = 0.14 (at node 4)
Average accepted flit rate = 0.163
Maximum accepted flit rate = 0.1775 (at node 8)
Total number of injected packets = 5558
Total number of injected flits = 5558
Average injected packet length = 1
Total number of accepted packets = 5216
Total number of accepted flits = 5216
Average accepted packet length = 1
Total in-flight flits = 358 (0 measured)
===== Time: 3000 =====
Class 0:
Minimum packet latency = 857
Average packet latency = 1161.04
Maximum packet latency = 1493
Minimum network latency = 97
Average network latency = 128.711
Maximum network latency = 189
Slowest packet = 5180
Minimum flit latency = 97
Average flit latency = 128.711
Maximum flit latency = 189
Slowest flit = 6900
Minimum fragmentation = 0
Average fragmentation = 0
Maximum fragmentation = 0
Minimum injected packet rate = 0.166 (at node 0)
Average injected packet rate = 0.166313
Maximum injected packet rate = 0.167 (at node 1)
Minimum accepted packet rate = 0.152 (at node 4)
Average accepted packet rate = 0.166563
Maximum accepted packet rate = 0.19 (at node 7)
Minimum injected flit rate = 0.166 (at node 0)
Average injected flit rate = 0.166313
Maximum injected flit rate = 0.167 (at node 1)
Minimum accepted flit rate = 0.152 (at node 4)
Average accepted flit rate = 0.166563
Maximum accepted flit rate = 0.19 (at node 7)
Total number of injected packets = 2661
Total number of injected flits = 2661
Average injected packet length = 1
Total number of accepted packets = 2665
Total number of accepted flits = 2665
Average accepted packet length = 1
Total in-flight flits = 353 (0 measured)
===== Time: 4000 =====
Class 0:
Minimum packet latency = 1333
Average packet latency = 1646.11
Maximum packet latency = 1943
Minimum network latency = 98
Average network latency = 128.806
Maximum network latency = 247
Slowest packet = 8253
Minimum flit latency = 98
Average flit latency = 128.793
Maximum flit latency = 247
Slowest flit = 9452
Minimum fragmentation = 0
Average fragmentation = 0
Maximum fragmentation = 0
Minimum injected packet rate = 0.158 (at node 5)
Average injected packet rate = 0.165813
Maximum injected packet rate = 0.167 (at node 0)
Minimum accepted packet rate = 0.143 (at node 5)
Average accepted packet rate = 0.164813
Maximum accepted packet rate = 0.185 (at node 0)
Minimum injected flit rate = 0.158 (at node 5)
Average injected flit rate = 0.165813
Maximum injected flit rate = 0.167 (at node 0)
Minimum accepted flit rate = 0.143 (at node 5)
Average accepted flit rate = 0.164813
Maximum accepted flit rate = 0.185 (at node 0)
Total number of injected packets = 2653
Total number of injected flits = 2653
Average injected packet length = 1
Total number of accepted packets = 2637
Total number of accepted flits = 2637
Average accepted packet length = 1
Total in-flight flits = 368 (368 measured)
===== Time: 5000 =====
Class 0:
Minimum packet latency = 1333
Average packet latency = 1879.24
Maximum packet latency = 2459
Minimum network latency = 98
Average network latency = 128.823
Maximum network latency = 247
Slowest packet = 8253
Minimum flit latency = 98
Average flit latency = 128.815
Maximum flit latency = 247
Slowest flit = 9452
Minimum fragmentation = 0
Average fragmentation = 0
Maximum fragmentation = 0
Minimum injected packet rate = 0.162 (at node 5)
Average injected packet rate = 0.165875
Maximum injected packet rate = 0.167 (at node 6)
Minimum accepted packet rate = 0.1535 (at node 4)
Average accepted packet rate = 0.165875
Maximum accepted packet rate = 0.176 (at node 11)
Minimum injected flit rate = 0.162 (at node 5)
Average injected flit rate = 0.165875
Maximum injected flit rate = 0.167 (at node 6)
Minimum accepted flit rate = 0.1535 (at node 4)
Average accepted flit rate = 0.165875
Maximum accepted flit rate = 0.176 (at node 11)
Total number of injected packets = 5308
Total number of injected flits = 5308
Average injected packet length = 1
Total number of accepted packets = 5308
Total number of accepted flits = 5308
Average accepted packet length = 1
Total in-flight flits = 353 (353 measured)
===== Time: 6000 =====
Class 0:
Minimum packet latency = 1333
Average packet latency = 2112.85
Maximum packet latency = 2902
Minimum network latency = 97
Average network latency = 128.434
Maximum network latency = 247
Slowest packet = 8253
Minimum flit latency = 97
Average flit latency = 128.446
Maximum flit latency = 247
Slowest flit = 9452
Minimum fragmentation = 0
Average fragmentation = 0
Maximum fragmentation = 0
Minimum injected packet rate = 0.163333 (at node 5)
Average injected packet rate = 0.166083
Maximum injected packet rate = 0.167 (at node 4)
Minimum accepted packet rate = 0.153 (at node 4)
Average accepted packet rate = 0.165896
Maximum accepted packet rate = 0.173333 (at node 12)
Minimum injected flit rate = 0.163333 (at node 5)
Average injected flit rate = 0.166083
Maximum injected flit rate = 0.167 (at node 4)
Minimum accepted flit rate = 0.153 (at node 4)
Average accepted flit rate = 0.165896
Maximum accepted flit rate = 0.173333 (at node 12)
Total number of injected packets = 7972
Total number of injected flits = 7972
Average injected packet length = 1
Total number of accepted packets = 7963
Total number of accepted flits = 7963
Average accepted packet length = 1
Total in-flight flits = 357 (357 measured)
Draining remaining packets ...
Class 0:
Remaining flits: 15777 15805 15816 15819 15830 15836 15839 15840 15846 15847 [...] (330 flits)
Measured flits: 15777 15805 15816 15819 15830 15836 15839 15840 15846 15847 [...] (330 flits)
Class 0:
Remaining flits: 15830 15836 15839 15840 15867 15869 15872 15873 15874 15880 [...] (301 flits)
Measured flits: 15830 15836 15839 15840 15867 15869 15872 15873 15874 15880 [...] (301 flits)
Class 0:
Remaining flits: 15881 15894 15901 15903 15907 15911 15912 15914 15916 15917 [...] (273 flits)
Measured flits: 15881 15894 15901 15903 15907 15911 15912 15914 15916 15917 [...] (273 flits)
Class 0:
Remaining flits: 15894 15901 15907 15911 15912 15914 15916 15924 15927 15928 [...] (251 flits)
Measured flits: 15894 15901 15907 15911 15912 15914 15916 15924 15927 15928 [...] (251 flits)
Class 0:
Remaining flits: 15901 15912 15916 15928 15932 15933 15935 15946 15948 15952 [...] (225 flits)
Measured flits: 15901 15912 15916 15928 15932 15933 15935 15946 15948 15952 [...] (225 flits)
Class 0:
Remaining flits: 15928 15932 15948 15952 15965 15973 15977 15979 15980 15986 [...] (200 flits)
Measured flits: 15928 15932 15948 15952 15965 15973 15977 15979 15980 15986 [...] (200 flits)
Class 0:
Remaining flits: 15932 15948 15952 15965 15986 15992 15994 15997 15998 15999 [...] (175 flits)
Measured flits: 15932 15948 15952 15965 15986 15992 15994 15997 15998 15999 [...] (175 flits)
Class 0:
Remaining flits: 15932 15965 15994 15997 16013 16016 16017 16026 16030 16035 [...] (149 flits)
Measured flits: 15932 15965 15994 15997 16013 16016 16017 16026 16030 16035 [...] (149 flits)
Class 0:
Remaining flits: 15994 16026 16035 16049 16052 16062 16064 16065 16068 16069 [...] (116 flits)
Measured flits: 15994 16026 16035 16049 16052 16062 16064 16065 16068 16069 [...] (116 flits)
Class 0:
Remaining flits: 16065 16068 16079 16084 16085 16093 16098 16099 16100 16103 [...] (88 flits)
Measured flits: 16065 16068 16079 16084 16085 16093 16098 16099 16100 16103 [...] (88 flits)
Class 0:
Remaining flits: 16065 16079 16084 16085 16100 16104 16105 16107 16115 16116 [...] (64 flits)
Measured flits: 16065 16079 16084 16085 16100 16104 16105 16107 16115 16116 [...] (64 flits)
Class 0:
Remaining flits: 16084 16100 16104 16105 16115 16119 16125 16134 16140 16146 [...] (39 flits)
Measured flits: 16084 16100 16104 16105 16115 16119 16125 16134 16140 16146 [...] (39 flits)
Class 0:
Remaining flits: 16084 16100 16115 16134 16140 16146 16149 16151 16159 16172 [...] (23 flits)
Measured flits: 16084 16100 16115 16134 16140 16146 16149 16151 16159 16172 [...] (23 flits)
Class 0:
Remaining flits: 16146 16184 16186 16187 16188 16191 16192 16194 16195 16196 [...] (11 flits)
Measured flits: 16146 16184 16186 16187 16188 16191 16192 16194 16195 16196 [...] (11 flits)
Class 0:
Remaining flits: 16146 16184 16186 16187 16188 16191 16192 16194 16195 16196 [...] (11 flits)
Measured flits: 16146 16184 16186 16187 16188 16191 16192 16194 16195 16196 [...] (11 flits)
Class 0:
Remaining flits: 16146 16184 16186 16187 16188 16191 16192 16194 16195 16196 [...] (11 flits)
Measured flits: 16146 16184 16186 16187 16188 16191 16192 16194 16195 16196 [...] (11 flits)
Class 0:
Remaining flits: 16146 16184 16186 16187 16188 16191 16192 16194 16195 16196 [...] (11 flits)
Measured flits: 16146 16184 16186 16187 16188 16191 16192 16194 16195 16196 [...] (11 flits)
Class 0:
Remaining flits: 16146 16184 16186 16187 16188 16191 16192 16194 16195 16196 [...] (11 flits)
Measured flits: 16146 16184 16186 16187 16188 16191 16192 16194 16195 16196 [...] (11 flits)
Class 0:
Remaining flits: 16146 16184 16186 16187 16188 16191 16192 16194 16195 16196 [...] (11 flits)
Measured flits: 16146 16184 16186 16187 16188 16191 16192 16194 16195 16196 [...] (11 flits)
Class 0:
Remaining flits: 16146 16184 16186 16187 16188 16191 16192 16194 16195 16196 [...] (11 flits)
Measured flits: 16146 16184 16186 16187 16188 16191 16192 16194 16195 16196 [...] (11 flits)
Class 0:
Remaining flits: 16146 16184 16186 16187 16188 16191 16192 16194 16195 16196 [...] (11 flits)
Measured flits: 16146 16184 16186 16187 16188 16191 16192 16194 16195 16196 [...] (11 flits)
Class 0:
Remaining flits: 16146 16184 16186 16187 16188 16191 16192 16194 16195 16196 [...] (11 flits)
Measured flits: 16146 16184 16186 16187 16188 16191 16192 16194 16195 16196 [...] (11 flits)
Class 0:
Remaining flits: 16146 16184 16186 16187 16188 16191 16192 16194 16195 16196 [...] (11 flits)
Measured flits: 16146 16184 16186 16187 16188 16191 16192 16194 16195 16196 [...] (11 flits)
Class 0:
Remaining flits: 16146 16184 16186 16187 16188 16191 16192 16194 16195 16196 [...] (11 flits)
Measured flits: 16146 16184 16186 16187 16188 16191 16192 16194 16195 16196 [...] (11 flits)
Class 0:
Remaining flits: 16146 16184 16186 16187 16188 16191 16192 16194 16195 16196 [...] (11 flits)
Measured flits: 16146 16184 16186 16187 16188 16191 16192 16194 16195 16196 [...] (11 flits)
Class 0:
Remaining flits: 16146 16184 16186 16187 16188 16191 16192 16194 16195 16196 [...] (11 flits)
Measured flits: 16146 16184 16186 16187 16188 16191 16192 16194 16195 16196 [...] (11 flits)
Class 0:
Remaining flits: 16146 16184 16186 16187 16188 16191 16192 16194 16195 16196 [...] (11 flits)
Measured flits: 16146 16184 16186 16187 16188 16191 16192 16194 16195 16196 [...] (11 flits)
Class 0:
Remaining flits: 16146 16184 16186 16187 16188 16191 16192 16194 16195 16196 [...] (11 flits)
Measured flits: 16146 16184 16186 16187 16188 16191 16192 16194 16195 16196 [...] (11 flits)
Class 0:
Remaining flits: 16146 16184 16186 16187 16188 16191 16192 16194 16195 16196 [...] (11 flits)
Measured flits: 16146 16184 16186 16187 16188 16191 16192 16194 16195 16196 [...] (11 flits)
Class 0:
Remaining flits: 16146 16184 16186 16187 16188 16191 16192 16194 16195 16196 [...] (11 flits)
Measured flits: 16146 16184 16186 16187 16188 16191 16192 16194 16195 16196 [...] (11 flits)
Class 0:
Remaining flits: 16146 16184 16186 16187 16188 16191 16192 16194 16195 16196 [...] (11 flits)
Measured flits: 16146 16184 16186 16187 16188 16191 16192 16194 16195 16196 [...] (11 flits)
Class 0:
Remaining flits: 16146 16184 16186 16187 16188 16191 16192 16194 16195 16196 [...] (11 flits)
Measured flits: 16146 16184 16186 16187 16188 16191 16192 16194 16195 16196 [...] (11 flits)
Class 0:
Remaining flits: 16146 16184 16186 16187 16188 16191 16192 16194 16195 16196 [...] (11 flits)
Measured flits: 16146 16184 16186 16187 16188 16191 16192 16194 16195 16196 [...] (11 flits)
Class 0:
Remaining flits: 16146 16184 16186 16187 16188 16191 16192 16194 16195 16196 [...] (11 flits)
Measured flits: 16146 16184 16186 16187 16188 16191 16192 16194 16195 16196 [...] (11 flits)
Class 0:
Remaining flits: 16146 16184 16186 16187 16188 16191 16192 16194 16195 16196 [...] (11 flits)
Measured flits: 16146 16184 16186 16187 16188 16191 16192 16194 16195 16196 [...] (11 flits)
Class 0:
Remaining flits: 16146 16184 16186 16187 16188 16191 16192 16194 16195 16196 [...] (11 flits)
Measured flits: 16146 16184 16186 16187 16188 16191 16192 16194 16195 16196 [...] (11 flits)
Class 0:
Remaining flits: 16146 16184 16186 16187 16188 16191 16192 16194 16195 16196 [...] (11 flits)
Measured flits: 16146 16184 16186 16187 16188 16191 16192 16194 16195 16196 [...] (11 flits)
Class 0:
Remaining flits: 16146 16184 16186 16187 16188 16191 16192 16194 16195 16196 [...] (11 flits)
Measured flits: 16146 16184 16186 16187 16188 16191 16192 16194 16195 16196 [...] (11 flits)
Class 0:
Remaining flits: 16146 16184 16186 16187 16188 16191 16192 16194 16195 16196 [...] (11 flits)
Measured flits: 16146 16184 16186 16187 16188 16191 16192 16194 16195 16196 [...] (11 flits)
Class 0:
Remaining flits: 16146 16184 16186 16187 16188 16191 16192 16194 16195 16196 [...] (11 flits)
Measured flits: 16146 16184 16186 16187 16188 16191 16192 16194 16195 16196 [...] (11 flits)
Class 0:
Remaining flits: 16146 16184 16186 16187 16188 16191 16192 16194 16195 16196 [...] (11 flits)
Measured flits: 16146 16184 16186 16187 16188 16191 16192 16194 16195 16196 [...] (11 flits)
Class 0:
Remaining flits: 16146 16184 16186 16187 16188 16191 16192 16194 16195 16196 [...] (11 flits)
Measured flits: 16146 16184 16186 16187 16188 16191 16192 16194 16195 16196 [...] (11 flits)
Class 0:
Remaining flits: 16146 16184 16186 16187 16188 16191 16192 16194 16195 16196 [...] (11 flits)
Measured flits: 16146 16184 16186 16187 16188 16191 16192 16194 16195 16196 [...] (11 flits)
Class 0:
Remaining flits: 16146 16184 16186 16187 16188 16191 16192 16194 16195 16196 [...] (11 flits)
Measured flits: 16146 16184 16186 16187 16188 16191 16192 16194 16195 16196 [...] (11 flits)
Class 0:
Remaining flits: 16146 16184 16186 16187 16188 16191 16192 16194 16195 16196 [...] (11 flits)
Measured flits: 16146 16184 16186 16187 16188 16191 16192 16194 16195 16196 [...] (11 flits)
Class 0:
Remaining flits: 16146 16184 16186 16187 16188 16191 16192 16194 16195 16196 [...] (11 flits)
Measured flits: 16146 16184 16186 16187 16188 16191 16192 16194 16195 16196 [...] (11 flits)
Class 0:
Remaining flits: 16146 16184 16186 16187 16188 16191 16192 16194 16195 16196 [...] (11 flits)
Measured flits: 16146 16184 16186 16187 16188 16191 16192 16194 16195 16196 [...] (11 flits)
Class 0:
Remaining flits: 16146 16184 16186 16187 16188 16191 16192 16194 16195 16196 [...] (11 flits)
Measured flits: 16146 16184 16186 16187 16188 16191 16192 16194 16195 16196 [...] (11 flits)
Class 0:
Remaining flits: 16146 16184 16186 16187 16188 16191 16192 16194 16195 16196 [...] (11 flits)
Measured flits: 16146 16184 16186 16187 16188 16191 16192 16194 16195 16196 [...] (11 flits)
Class 0:
Remaining flits: 16146 16184 16186 16187 16188 16191 16192 16194 16195 16196 [...] (11 flits)
Measured flits: 16146 16184 16186 16187 16188 16191 16192 16194 16195 16196 [...] (11 flits)
Class 0:
Remaining flits: 16146 16184 16186 16187 16188 16191 16192 16194 16195 16196 [...] (11 flits)
Measured flits: 16146 16184 16186 16187 16188 16191 16192 16194 16195 16196 [...] (11 flits)
Class 0:
Remaining flits: 16146 16184 16186 16187 16188 16191 16192 16194 16195 16196 [...] (11 flits)
Measured flits: 16146 16184 16186 16187 16188 16191 16192 16194 16195 16196 [...] (11 flits)
Class 0:
Remaining flits: 16146 16184 16186 16187 16188 16191 16192 16194 16195 16196 [...] (11 flits)
Measured flits: 16146 16184 16186 16187 16188 16191 16192 16194 16195 16196 [...] (11 flits)
Class 0:
Remaining flits: 16146 16184 16186 16187 16188 16191 16192 16194 16195 16196 [...] (11 flits)
Measured flits: 16146 16184 16186 16187 16188 16191 16192 16194 16195 16196 [...] (11 flits)
Class 0:
Remaining flits: 16146 16184 16186 16187 16188 16191 16192 16194 16195 16196 [...] (11 flits)
Measured flits: 16146 16184 16186 16187 16188 16191 16192 16194 16195 16196 [...] (11 flits)
Class 0:
Remaining flits: 16146 16184 16186 16187 16188 16191 16192 16194 16195 16196 [...] (11 flits)
Measured flits: 16146 16184 16186 16187 16188 16191 16192 16194 16195 16196 [...] (11 flits)
Class 0:
Remaining flits: 16146 16184 16186 16187 16188 16191 16192 16194 16195 16196 [...] (11 flits)
Measured flits: 16146 16184 16186 16187 16188 16191 16192 16194 16195 16196 [...] (11 flits)
Class 0:
Remaining flits: 16146 16184 16186 16187 16188 16191 16192 16194 16195 16196 [...] (11 flits)
Measured flits: 16146 16184 16186 16187 16188 16191 16192 16194 16195 16196 [...] (11 flits)
Class 0:
Remaining flits: 16146 16184 16186 16187 16188 16191 16192 16194 16195 16196 [...] (11 flits)
Measured flits: 16146 16184 16186 16187 16188 16191 16192 16194 16195 16196 [...] (11 flits)
Class 0:
Remaining flits: 16146 16184 16186 16187 16188 16191 16192 16194 16195 16196 [...] (11 flits)
Measured flits: 16146 16184 16186 16187 16188 16191 16192 16194 16195 16196 [...] (11 flits)
Class 0:
Remaining flits: 16146 16184 16186 16187 16188 16191 16192 16194 16195 16196 [...] (11 flits)
Measured flits: 16146 16184 16186 16187 16188 16191 16192 16194 16195 16196 [...] (11 flits)
Class 0:
Remaining flits: 16146 16184 16186 16187 16188 16191 16192 16194 16195 16196 [...] (11 flits)
Measured flits: 16146 16184 16186 16187 16188 16191 16192 16194 16195 16196 [...] (11 flits)
Class 0:
Remaining flits: 16146 16184 16186 16187 16188 16191 16192 16194 16195 16196 [...] (11 flits)
Measured flits: 16146 16184 16186 16187 16188 16191 16192 16194 16195 16196 [...] (11 flits)
Class 0:
Remaining flits: 16146 16184 16186 16187 16188 16191 16192 16194 16195 16196 [...] (11 flits)
Measured flits: 16146 16184 16186 16187 16188 16191 16192 16194 16195 16196 [...] (11 flits)
Class 0:
Remaining flits: 16146 16184 16186 16187 16188 16191 16192 16194 16195 16196 [...] (11 flits)
Measured flits: 16146 16184 16186 16187 16188 16191 16192 16194 16195 16196 [...] (11 flits)
Class 0:
Remaining flits: 16146 16184 16186 16187 16188 16191 16192 16194 16195 16196 [...] (11 flits)
Measured flits: 16146 16184 16186 16187 16188 16191 16192 16194 16195 16196 [...] (11 flits)
Class 0:
Remaining flits: 16146 16184 16186 16187 16188 16191 16192 16194 16195 16196 [...] (11 flits)
Measured flits: 16146 16184 16186 16187 16188 16191 16192 16194 16195 16196 [...] (11 flits)
Class 0:
Remaining flits: 16146 16184 16186 16187 16188 16191 16192 16194 16195 16196 [...] (11 flits)
Measured flits: 16146 16184 16186 16187 16188 16191 16192 16194 16195 16196 [...] (11 flits)
Class 0:
Remaining flits: 16146 16184 16186 16187 16188 16191 16192 16194 16195 16196 [...] (11 flits)
Measured flits: 16146 16184 16186 16187 16188 16191 16192 16194 16195 16196 [...] (11 flits)
Class 0:
Remaining flits: 16146 16184 16186 16187 16188 16191 16192 16194 16195 16196 [...] (11 flits)
Measured flits: 16146 16184 16186 16187 16188 16191 16192 16194 16195 16196 [...] (11 flits)
Class 0:
Remaining flits: 16146 16184 16186 16187 16188 16191 16192 16194 16195 16196 [...] (11 flits)
Measured flits: 16146 16184 16186 16187 16188 16191 16192 16194 16195 16196 [...] (11 flits)
Class 0:
Remaining flits: 16146 16184 16186 16187 16188 16191 16192 16194 16195 16196 [...] (11 flits)
Measured flits: 16146 16184 16186 16187 16188 16191 16192 16194 16195 16196 [...] (11 flits)
Class 0:
Remaining flits: 16146 16184 16186 16187 16188 16191 16192 16194 16195 16196 [...] (11 flits)
Measured flits: 16146 16184 16186 16187 16188 16191 16192 16194 16195 16196 [...] (11 flits)
Class 0:
Remaining flits: 16146 16184 16186 16187 16188 16191 16192 16194 16195 16196 [...] (11 flits)
Measured flits: 16146 16184 16186 16187 16188 16191 16192 16194 16195 16196 [...] (11 flits)
Class 0:
Remaining flits: 16146 16184 16186 16187 16188 16191 16192 16194 16195 16196 [...] (11 flits)
Measured flits: 16146 16184 16186 16187 16188 16191 16192 16194 16195 16196 [...] (11 flits)
Class 0:
Remaining flits: 16146 16184 16186 16187 16188 16191 16192 16194 16195 16196 [...] (11 flits)
Measured flits: 16146 16184 16186 16187 16188 16191 16192 16194 16195 16196 [...] (11 flits)
Class 0:
Remaining flits: 16146 16184 16186 16187 16188 16191 16192 16194 16195 16196 [...] (11 flits)
Measured flits: 16146 16184 16186 16187 16188 16191 16192 16194 16195 16196 [...] (11 flits)
Class 0:
Remaining flits: 16146 16184 16186 16187 16188 16191 16192 16194 16195 16196 [...] (11 flits)
Measured flits: 16146 16184 16186 16187 16188 16191 16192 16194 16195 16196 [...] (11 flits)
Class 0:
Remaining flits: 16146 16184 16186 16187 16188 16191 16192 16194 16195 16196 [...] (11 flits)
Measured flits: 16146 16184 16186 16187 16188 16191 16192 16194 16195 16196 [...] (11 flits)
Class 0:
Remaining flits: 16146 16184 16186 16187 16188 16191 16192 16194 16195 16196 [...] (11 flits)
Measured flits: 16146 16184 16186 16187 16188 16191 16192 16194 16195 16196 [...] (11 flits)
Class 0:
Remaining flits: 16146 16184 16186 16187 16188 16191 16192 16194 16195 16196 [...] (11 flits)
Measured flits: 16146 16184 16186 16187 16188 16191 16192 16194 16195 16196 [...] (11 flits)
Class 0:
Remaining flits: 16146 16184 16186 16187 16188 16191 16192 16194 16195 16196 [...] (11 flits)
Measured flits: 16146 16184 16186 16187 16188 16191 16192 16194 16195 16196 [...] (11 flits)
Class 0:
Remaining flits: 16146 16184 16186 16187 16188 16191 16192 16194 16195 16196 [...] (11 flits)
Measured flits: 16146 16184 16186 16187 16188 16191 16192 16194 16195 16196 [...] (11 flits)
Class 0:
Remaining flits: 16146 16184 16186 16187 16188 16191 16192 16194 16195 16196 [...] (11 flits)
Measured flits: 16146 16184 16186 16187 16188 16191 16192 16194 16195 16196 [...] (11 flits)
Class 0:
Remaining flits: 16146 16184 16186 16187 16188 16191 16192 16194 16195 16196 [...] (11 flits)
Measured flits: 16146 16184 16186 16187 16188 16191 16192 16194 16195 16196 [...] (11 flits)
Class 0:
Remaining flits: 16146 16184 16186 16187 16188 16191 16192 16194 16195 16196 [...] (11 flits)
Measured flits: 16146 16184 16186 16187 16188 16191 16192 16194 16195 16196 [...] (11 flits)
Class 0:
Remaining flits: 16146 16184 16186 16187 16188 16191 16192 16194 16195 16196 [...] (11 flits)
Measured flits: 16146 16184 16186 16187 16188 16191 16192 16194 16195 16196 [...] (11 flits)
Class 0:
Remaining flits: 16146 16184 16186 16187 16188 16191 16192 16194 16195 16196 [...] (11 flits)
Measured flits: 16146 16184 16186 16187 16188 16191 16192 16194 16195 16196 [...] (11 flits)
Class 0:
Remaining flits: 16146 16184 16186 16187 16188 16191 16192 16194 16195 16196 [...] (11 flits)
Measured flits: 16146 16184 16186 16187 16188 16191 16192 16194 16195 16196 [...] (11 flits)
Class 0:
Remaining flits: 16146 16184 16186 16187 16188 16191 16192 16194 16195 16196 [...] (11 flits)
Measured flits: 16146 16184 16186 16187 16188 16191 16192 16194 16195 16196 [...] (11 flits)
Class 0:
Remaining flits: 16146 16184 16186 16187 16188 16191 16192 16194 16195 16196 [...] (11 flits)
Measured flits: 16146 16184 16186 16187 16188 16191 16192 16194 16195 16196 [...] (11 flits)
Class 0:
Remaining flits: 16146 16184 16186 16187 16188 16191 16192 16194 16195 16196 [...] (11 flits)
Measured flits: 16146 16184 16186 16187 16188 16191 16192 16194 16195 16196 [...] (11 flits)
Class 0:
Remaining flits: 16146 16184 16186 16187 16188 16191 16192 16194 16195 16196 [...] (11 flits)
Measured flits: 16146 16184 16186 16187 16188 16191 16192 16194 16195 16196 [...] (11 flits)
Class 0:
Remaining flits: 16146 16184 16186 16187 16188 16191 16192 16194 16195 16196 [...] (11 flits)
Measured flits: 16146 16184 16186 16187 16188 16191 16192 16194 16195 16196 [...] (11 flits)
Class 0:
Remaining flits: 16146 16184 16186 16187 16188 16191 16192 16194 16195 16196 [...] (11 flits)
Measured flits: 16146 16184 16186 16187 16188 16191 16192 16194 16195 16196 [...] (11 flits)
Class 0:
Remaining flits: 16146 16184 16186 16187 16188 16191 16192 16194 16195 16196 [...] (11 flits)
Measured flits: 16146 16184 16186 16187 16188 16191 16192 16194 16195 16196 [...] (11 flits)
Class 0:
Remaining flits: 16146 16184 16186 16187 16188 16191 16192 16194 16195 16196 [...] (11 flits)
Measured flits: 16146 16184 16186 16187 16188 16191 16192 16194 16195 16196 [...] (11 flits)
Class 0:
Remaining flits: 16146 16184 16186 16187 16188 16191 16192 16194 16195 16196 [...] (11 flits)
Measured flits: 16146 16184 16186 16187 16188 16191 16192 16194 16195 16196 [...] (11 flits)
Class 0:
Remaining flits: 16146 16184 16186 16187 16188 16191 16192 16194 16195 16196 [...] (11 flits)
Measured flits: 16146 16184 16186 16187 16188 16191 16192 16194 16195 16196 [...] (11 flits)
Class 0:
Remaining flits: 16146 16184 16186 16187 16188 16191 16192 16194 16195 16196 [...] (11 flits)
Measured flits: 16146 16184 16186 16187 16188 16191 16192 16194 16195 16196 [...] (11 flits)
Class 0:
Remaining flits: 16146 16184 16186 16187 16188 16191 16192 16194 16195 16196 [...] (11 flits)
Measured flits: 16146 16184 16186 16187 16188 16191 16192 16194 16195 16196 [...] (11 flits)
Time taken is 7000 cycles
====== Traffic class 0 ======

Total number of flits generated = 16201, changed lanes = 16010
Overall minimum packet latency = 1333 (1 samples)
Overall average packet latency = 2142.86 (1 samples)
Overall maximum packet latency = 2971 (1 samples)
Overall minimum network latency = 97 (1 samples)
Overall average network latency = 128.528 (1 samples)
Overall maximum network latency = 247 (1 samples)
Overall minimum flit latency = 97 (1 samples)
Overall average flit latency = 128.536 (1 samples)
Overall maximum flit latency = 247 (1 samples)
Overall minimum fragmentation = 0 (1 samples)
Overall average fragmentation = 0 (1 samples)
Overall maximum fragmentation = 0 (1 samples)
Overall minimum injected packet rate = 0.163333 (1 samples)
Overall average injected packet rate = 0.166083 (1 samples)
Overall maximum injected packet rate = 0.167 (1 samples)
Overall minimum accepted packet rate = 0.153 (1 samples)
Overall average accepted packet rate = 0.165896 (1 samples)
Overall maximum accepted packet rate = 0.173333 (1 samples)
Overall minimum injected flit rate = 0.163333 (1 samples)
Overall average injected flit rate = 0.166083 (1 samples)
Overall maximum injected flit rate = 0.167 (1 samples)
Overall minimum accepted flit rate = 0.153 (1 samples)
Overall average accepted flit rate = 0.165896 (1 samples)
Overall maximum accepted flit rate = 0.173333 (1 samples)
Overall average injected packet size = 1 (1 samples)
Overall average accepted packet size = 1 (1 samples)
Overall average hops = 3.01345 (1 samples)
Overall throughput of the network (flits/cycle) = 5.39667
Overall throughput of the network (packets/cycle) = 5.39667
Total run time 4177.24
