make: Nothing to be done for `all'.
Master: Running timer....
Master: Running SRC....
BEGIN Configuration File: ./examples/bitrev
// Topology

topology = torus;
k = 4;
n = 2;

// Routing
routing_function = dim_order;

// Flow control
num_vcs     = 4;
vc_buf_size = 4;
wait_for_tail_credit = 0;

// Router architecture
vc_allocator = islip;
sw_allocator = islip;
alloc_iters  = 1;

credit_delay   = 1;
routing_delay  = 1;
vc_alloc_delay = 1;
sw_alloc_delay = 1;

input_speedup     = 1;
output_speedup    = 1;
internal_speedup  = 1.0;

vc_busy_when_full = 0;

// Traffic
traffic = uniform;
packet_size = 1;

// Simulation
sim_type = throughput;

injection_rate = 0.27;

END Configuration File: ./examples/bitrev
===== Time: 1000 =====
Class 0:
Minimum packet latency = 9
Average packet latency = 209.604
Maximum packet latency = 467
Minimum network latency = 10
Average network latency = 115.164
Maximum network latency = 185
Slowest packet = 420
Minimum flit latency = 10
Average flit latency = 115.164
Maximum flit latency = 185
Slowest flit = 2147
Minimum fragmentation = 0
Average fragmentation = 0
Maximum fragmentation = 0
Minimum injected packet rate = 0.179 (at node 11)
Average injected packet rate = 0.180938
Maximum injected packet rate = 0.182 (at node 2)
Minimum accepted packet rate = 0.143 (at node 14)
Average accepted packet rate = 0.15925
Maximum accepted packet rate = 0.183 (at node 15)
Minimum injected flit rate = 0.179 (at node 11)
Average injected flit rate = 0.180938
Maximum injected flit rate = 0.182 (at node 2)
Minimum accepted flit rate = 0.143 (at node 14)
Average accepted flit rate = 0.15925
Maximum accepted flit rate = 0.183 (at node 15)
Total number of injected packets = 2895
Total number of injected flits = 2895
Average injected packet length = 1
Total number of accepted packets = 2548
Total number of accepted flits = 2548
Average accepted packet length = 1
Total in-flight flits = 358 (0 measured)
===== Time: 2000 =====
Class 0:
Minimum packet latency = 9
Average packet latency = 397.664
Maximum packet latency = 877
Minimum network latency = 10
Average network latency = 121.478
Maximum network latency = 199
Slowest packet = 420
Minimum flit latency = 10
Average flit latency = 121.478
Maximum flit latency = 199
Slowest flit = 2690
Minimum fragmentation = 0
Average fragmentation = 0
Maximum fragmentation = 0
Minimum injected packet rate = 0.1725 (at node 11)
Average injected packet rate = 0.173594
Maximum injected packet rate = 0.1745 (at node 5)
Minimum accepted packet rate = 0.1465 (at node 3)
Average accepted packet rate = 0.162688
Maximum accepted packet rate = 0.179 (at node 8)
Minimum injected flit rate = 0.1725 (at node 11)
Average injected flit rate = 0.173594
Maximum injected flit rate = 0.1745 (at node 5)
Minimum accepted flit rate = 0.1465 (at node 3)
Average accepted flit rate = 0.162688
Maximum accepted flit rate = 0.179 (at node 8)
Total number of injected packets = 5555
Total number of injected flits = 5555
Average injected packet length = 1
Total number of accepted packets = 5206
Total number of accepted flits = 5206
Average accepted packet length = 1
Total in-flight flits = 363 (0 measured)
===== Time: 3000 =====
Class 0:
Minimum packet latency = 671
Average packet latency = 955.503
Maximum packet latency = 1318
Minimum network latency = 98
Average network latency = 127.776
Maximum network latency = 180
Slowest packet = 5254
Minimum flit latency = 98
Average flit latency = 127.776
Maximum flit latency = 180
Slowest flit = 5372
Minimum fragmentation = 0
Average fragmentation = 0
Maximum fragmentation = 0
Minimum injected packet rate = 0.165 (at node 0)
Average injected packet rate = 0.1665
Maximum injected packet rate = 0.167 (at node 2)
Minimum accepted packet rate = 0.142 (at node 2)
Average accepted packet rate = 0.1665
Maximum accepted packet rate = 0.2 (at node 11)
Minimum injected flit rate = 0.165 (at node 0)
Average injected flit rate = 0.1665
Maximum injected flit rate = 0.167 (at node 2)
Minimum accepted flit rate = 0.142 (at node 2)
Average accepted flit rate = 0.1665
Maximum accepted flit rate = 0.2 (at node 11)
Total number of injected packets = 2664
Total number of injected flits = 2664
Average injected packet length = 1
Total number of accepted packets = 2664
Total number of accepted flits = 2664
Average accepted packet length = 1
Total in-flight flits = 362 (0 measured)
===== Time: 4000 =====
Class 0:
Minimum packet latency = 1094
Average packet latency = 1354.98
Maximum packet latency = 1710
Minimum network latency = 97
Average network latency = 127.725
Maximum network latency = 230
Slowest packet = 8235
Minimum flit latency = 97
Average flit latency = 128.126
Maximum flit latency = 230
Slowest flit = 9501
Minimum fragmentation = 0
Average fragmentation = 0
Maximum fragmentation = 0
Minimum injected packet rate = 0.165 (at node 4)
Average injected packet rate = 0.166187
Maximum injected packet rate = 0.167 (at node 0)
Minimum accepted packet rate = 0.147 (at node 13)
Average accepted packet rate = 0.166687
Maximum accepted packet rate = 0.187 (at node 11)
Minimum injected flit rate = 0.165 (at node 4)
Average injected flit rate = 0.166187
Maximum injected flit rate = 0.167 (at node 0)
Minimum accepted flit rate = 0.147 (at node 13)
Average accepted flit rate = 0.166687
Maximum accepted flit rate = 0.187 (at node 11)
Total number of injected packets = 2659
Total number of injected flits = 2659
Average injected packet length = 1
Total number of accepted packets = 2667
Total number of accepted flits = 2667
Average accepted packet length = 1
Total in-flight flits = 357 (357 measured)
===== Time: 5000 =====
Class 0:
Minimum packet latency = 1094
Average packet latency = 1551.89
Maximum packet latency = 2134
Minimum network latency = 97
Average network latency = 127.844
Maximum network latency = 230
Slowest packet = 8235
Minimum flit latency = 97
Average flit latency = 128.037
Maximum flit latency = 230
Slowest flit = 9501
Minimum fragmentation = 0
Average fragmentation = 0
Maximum fragmentation = 0
Minimum injected packet rate = 0.1655 (at node 2)
Average injected packet rate = 0.166094
Maximum injected packet rate = 0.1665 (at node 5)
Minimum accepted packet rate = 0.15 (at node 13)
Average accepted packet rate = 0.166375
Maximum accepted packet rate = 0.181 (at node 8)
Minimum injected flit rate = 0.1655 (at node 2)
Average injected flit rate = 0.166094
Maximum injected flit rate = 0.1665 (at node 5)
Minimum accepted flit rate = 0.15 (at node 13)
Average accepted flit rate = 0.166375
Maximum accepted flit rate = 0.181 (at node 8)
Total number of injected packets = 5315
Total number of injected flits = 5315
Average injected packet length = 1
Total number of accepted packets = 5324
Total number of accepted flits = 5324
Average accepted packet length = 1
Total in-flight flits = 356 (356 measured)
===== Time: 6000 =====
Class 0:
Minimum packet latency = 1094
Average packet latency = 1746.73
Maximum packet latency = 2486
Minimum network latency = 97
Average network latency = 127.713
Maximum network latency = 230
Slowest packet = 8235
Minimum flit latency = 97
Average flit latency = 127.847
Maximum flit latency = 230
Slowest flit = 9501
Minimum fragmentation = 0
Average fragmentation = 0
Maximum fragmentation = 0
Minimum injected packet rate = 0.165667 (at node 14)
Average injected packet rate = 0.166292
Maximum injected packet rate = 0.166667 (at node 5)
Minimum accepted packet rate = 0.153333 (at node 13)
Average accepted packet rate = 0.166458
Maximum accepted packet rate = 0.181 (at node 8)
Minimum injected flit rate = 0.165667 (at node 14)
Average injected flit rate = 0.166292
Maximum injected flit rate = 0.166667 (at node 5)
Minimum accepted flit rate = 0.153333 (at node 13)
Average accepted flit rate = 0.166458
Maximum accepted flit rate = 0.181 (at node 8)
Total number of injected packets = 7982
Total number of injected flits = 7982
Average injected packet length = 1
Total number of accepted packets = 7990
Total number of accepted flits = 7990
Average accepted packet length = 1
Total in-flight flits = 355 (355 measured)
Draining remaining packets ...
Class 0:
Remaining flits: 15815 15845 15847 15866 15870 15871 15876 15877 15885 15886 [...] (324 flits)
Measured flits: 15815 15845 15847 15866 15870 15871 15876 15877 15885 15886 [...] (324 flits)
Class 0:
Remaining flits: 15870 15876 15877 15885 15886 15890 15900 15902 15909 15910 [...] (300 flits)
Measured flits: 15870 15876 15877 15885 15886 15890 15900 15902 15909 15910 [...] (300 flits)
Class 0:
Remaining flits: 15900 15909 15911 15912 15920 15924 15925 15930 15931 15933 [...] (273 flits)
Measured flits: 15900 15909 15911 15912 15920 15924 15925 15930 15931 15933 [...] (273 flits)
Class 0:
Remaining flits: 15911 15920 15933 15944 15945 15946 15950 15951 15954 15955 [...] (244 flits)
Measured flits: 15911 15920 15933 15944 15945 15946 15950 15951 15954 15955 [...] (244 flits)
Class 0:
Remaining flits: 15911 15954 15960 15964 15966 15967 15976 15978 15984 15985 [...] (220 flits)
Measured flits: 15911 15954 15960 15964 15966 15967 15976 15978 15984 15985 [...] (220 flits)
Class 0:
Remaining flits: 15976 15978 15984 15985 15987 15991 15994 15995 15998 15999 [...] (196 flits)
Measured flits: 15976 15978 15984 15985 15987 15991 15994 15995 15998 15999 [...] (196 flits)
Class 0:
Remaining flits: 15976 15995 15998 16000 16001 16002 16011 16016 16017 16021 [...] (172 flits)
Measured flits: 15976 15995 15998 16000 16001 16002 16011 16016 16017 16021 [...] (172 flits)
Class 0:
Remaining flits: 16000 16001 16016 16017 16026 16030 16032 16039 16041 16044 [...] (144 flits)
Measured flits: 16000 16001 16016 16017 16026 16030 16032 16039 16041 16044 [...] (144 flits)
Class 0:
Remaining flits: 16001 16030 16032 16044 16058 16062 16064 16065 16069 16082 [...] (121 flits)
Measured flits: 16001 16030 16032 16044 16058 16062 16064 16065 16069 16082 [...] (121 flits)
Class 0:
Remaining flits: 16001 16032 16044 16062 16082 16103 16105 16106 16108 16115 [...] (95 flits)
Measured flits: 16001 16032 16044 16062 16082 16103 16105 16106 16108 16115 [...] (95 flits)
Class 0:
Remaining flits: 16001 16044 16082 16106 16115 16119 16123 16124 16128 16130 [...] (64 flits)
Measured flits: 16001 16044 16082 16106 16115 16119 16123 16124 16128 16130 [...] (64 flits)
Class 0:
Remaining flits: 16001 16106 16123 16128 16134 16149 16150 16155 16156 16157 [...] (41 flits)
Measured flits: 16001 16106 16123 16128 16134 16149 16150 16155 16156 16157 [...] (41 flits)
Class 0:
Remaining flits: 16001 16106 16128 16155 16172 16173 16176 16184 16189 16193 [...] (23 flits)
Measured flits: 16001 16106 16128 16155 16172 16173 16176 16184 16189 16193 [...] (23 flits)
Class 0:
Remaining flits: 16106 16155 16193 16195 16201 16206 16207 16208 16211 16212 [...] (11 flits)
Measured flits: 16106 16155 16193 16195 16201 16206 16207 16208 16211 16212 [...] (11 flits)
Class 0:
Remaining flits: 16193 16195 16201 16206 16207 16208 16211 16212 (8 flits)
Measured flits: 16193 16195 16201 16206 16207 16208 16211 16212 (8 flits)
Class 0:
Remaining flits: 16195 16201 16206 16207 16208 16211 16212 (7 flits)
Measured flits: 16195 16201 16206 16207 16208 16211 16212 (7 flits)
Class 0:
Remaining flits: 16195 16201 16206 16207 16208 16211 16212 (7 flits)
Measured flits: 16195 16201 16206 16207 16208 16211 16212 (7 flits)
Class 0:
Remaining flits: 16195 16201 16206 16207 16208 16211 16212 (7 flits)
Measured flits: 16195 16201 16206 16207 16208 16211 16212 (7 flits)
Class 0:
Remaining flits: 16195 16201 16206 16207 16208 16211 16212 (7 flits)
Measured flits: 16195 16201 16206 16207 16208 16211 16212 (7 flits)
Class 0:
Remaining flits: 16195 16201 16206 16207 16208 16211 16212 (7 flits)
Measured flits: 16195 16201 16206 16207 16208 16211 16212 (7 flits)
Class 0:
Remaining flits: 16195 16201 16206 16207 16208 16211 16212 (7 flits)
Measured flits: 16195 16201 16206 16207 16208 16211 16212 (7 flits)
Class 0:
Remaining flits: 16195 16201 16206 16207 16208 16211 16212 (7 flits)
Measured flits: 16195 16201 16206 16207 16208 16211 16212 (7 flits)
Class 0:
Remaining flits: 16195 16201 16206 16207 16208 16211 16212 (7 flits)
Measured flits: 16195 16201 16206 16207 16208 16211 16212 (7 flits)
Class 0:
Remaining flits: 16195 16201 16206 16207 16208 16211 16212 (7 flits)
Measured flits: 16195 16201 16206 16207 16208 16211 16212 (7 flits)
Class 0:
Remaining flits: 16195 16201 16206 16207 16208 16211 16212 (7 flits)
Measured flits: 16195 16201 16206 16207 16208 16211 16212 (7 flits)
Class 0:
Remaining flits: 16195 16201 16206 16207 16208 16211 16212 (7 flits)
Measured flits: 16195 16201 16206 16207 16208 16211 16212 (7 flits)
Class 0:
Remaining flits: 16195 16201 16206 16207 16208 16211 16212 (7 flits)
Measured flits: 16195 16201 16206 16207 16208 16211 16212 (7 flits)
Class 0:
Remaining flits: 16195 16201 16206 16207 16208 16211 16212 (7 flits)
Measured flits: 16195 16201 16206 16207 16208 16211 16212 (7 flits)
Class 0:
Remaining flits: 16195 16201 16206 16207 16208 16211 16212 (7 flits)
Measured flits: 16195 16201 16206 16207 16208 16211 16212 (7 flits)
Class 0:
Remaining flits: 16195 16201 16206 16207 16208 16211 16212 (7 flits)
Measured flits: 16195 16201 16206 16207 16208 16211 16212 (7 flits)
Class 0:
Remaining flits: 16195 16201 16206 16207 16208 16211 16212 (7 flits)
Measured flits: 16195 16201 16206 16207 16208 16211 16212 (7 flits)
Class 0:
Remaining flits: 16195 16201 16206 16207 16208 16211 16212 (7 flits)
Measured flits: 16195 16201 16206 16207 16208 16211 16212 (7 flits)
Class 0:
Remaining flits: 16195 16201 16206 16207 16208 16211 16212 (7 flits)
Measured flits: 16195 16201 16206 16207 16208 16211 16212 (7 flits)
Class 0:
Remaining flits: 16195 16201 16206 16207 16208 16211 16212 (7 flits)
Measured flits: 16195 16201 16206 16207 16208 16211 16212 (7 flits)
Class 0:
Remaining flits: 16195 16201 16206 16207 16208 16211 16212 (7 flits)
Measured flits: 16195 16201 16206 16207 16208 16211 16212 (7 flits)
Class 0:
Remaining flits: 16195 16201 16206 16207 16208 16211 16212 (7 flits)
Measured flits: 16195 16201 16206 16207 16208 16211 16212 (7 flits)
Class 0:
Remaining flits: 16195 16201 16206 16207 16208 16211 16212 (7 flits)
Measured flits: 16195 16201 16206 16207 16208 16211 16212 (7 flits)
Class 0:
Remaining flits: 16195 16201 16206 16207 16208 16211 16212 (7 flits)
Measured flits: 16195 16201 16206 16207 16208 16211 16212 (7 flits)
Class 0:
Remaining flits: 16195 16201 16206 16207 16208 16211 16212 (7 flits)
Measured flits: 16195 16201 16206 16207 16208 16211 16212 (7 flits)
Class 0:
Remaining flits: 16195 16201 16206 16207 16208 16211 16212 (7 flits)
Measured flits: 16195 16201 16206 16207 16208 16211 16212 (7 flits)
Class 0:
Remaining flits: 16195 16201 16206 16207 16208 16211 16212 (7 flits)
Measured flits: 16195 16201 16206 16207 16208 16211 16212 (7 flits)
Class 0:
Remaining flits: 16195 16201 16206 16207 16208 16211 16212 (7 flits)
Measured flits: 16195 16201 16206 16207 16208 16211 16212 (7 flits)
Class 0:
Remaining flits: 16195 16201 16206 16207 16208 16211 16212 (7 flits)
Measured flits: 16195 16201 16206 16207 16208 16211 16212 (7 flits)
Class 0:
Remaining flits: 16195 16201 16206 16207 16208 16211 16212 (7 flits)
Measured flits: 16195 16201 16206 16207 16208 16211 16212 (7 flits)
Class 0:
Remaining flits: 16195 16201 16206 16207 16208 16211 16212 (7 flits)
Measured flits: 16195 16201 16206 16207 16208 16211 16212 (7 flits)
Class 0:
Remaining flits: 16195 16201 16206 16207 16208 16211 16212 (7 flits)
Measured flits: 16195 16201 16206 16207 16208 16211 16212 (7 flits)
Class 0:
Remaining flits: 16195 16201 16206 16207 16208 16211 16212 (7 flits)
Measured flits: 16195 16201 16206 16207 16208 16211 16212 (7 flits)
Class 0:
Remaining flits: 16195 16201 16206 16207 16208 16211 16212 (7 flits)
Measured flits: 16195 16201 16206 16207 16208 16211 16212 (7 flits)
Class 0:
Remaining flits: 16195 16201 16206 16207 16208 16211 16212 (7 flits)
Measured flits: 16195 16201 16206 16207 16208 16211 16212 (7 flits)
Class 0:
Remaining flits: 16195 16201 16206 16207 16208 16211 16212 (7 flits)
Measured flits: 16195 16201 16206 16207 16208 16211 16212 (7 flits)
Class 0:
Remaining flits: 16195 16201 16206 16207 16208 16211 16212 (7 flits)
Measured flits: 16195 16201 16206 16207 16208 16211 16212 (7 flits)
Class 0:
Remaining flits: 16195 16201 16206 16207 16208 16211 16212 (7 flits)
Measured flits: 16195 16201 16206 16207 16208 16211 16212 (7 flits)
Class 0:
Remaining flits: 16195 16201 16206 16207 16208 16211 16212 (7 flits)
Measured flits: 16195 16201 16206 16207 16208 16211 16212 (7 flits)
Class 0:
Remaining flits: 16195 16201 16206 16207 16208 16211 16212 (7 flits)
Measured flits: 16195 16201 16206 16207 16208 16211 16212 (7 flits)
Class 0:
Remaining flits: 16195 16201 16206 16207 16208 16211 16212 (7 flits)
Measured flits: 16195 16201 16206 16207 16208 16211 16212 (7 flits)
Class 0:
Remaining flits: 16195 16201 16206 16207 16208 16211 16212 (7 flits)
Measured flits: 16195 16201 16206 16207 16208 16211 16212 (7 flits)
Class 0:
Remaining flits: 16195 16201 16206 16207 16208 16211 16212 (7 flits)
Measured flits: 16195 16201 16206 16207 16208 16211 16212 (7 flits)
Class 0:
Remaining flits: 16195 16201 16206 16207 16208 16211 16212 (7 flits)
Measured flits: 16195 16201 16206 16207 16208 16211 16212 (7 flits)
Class 0:
Remaining flits: 16195 16201 16206 16207 16208 16211 16212 (7 flits)
Measured flits: 16195 16201 16206 16207 16208 16211 16212 (7 flits)
Class 0:
Remaining flits: 16195 16201 16206 16207 16208 16211 16212 (7 flits)
Measured flits: 16195 16201 16206 16207 16208 16211 16212 (7 flits)
Class 0:
Remaining flits: 16195 16201 16206 16207 16208 16211 16212 (7 flits)
Measured flits: 16195 16201 16206 16207 16208 16211 16212 (7 flits)
Class 0:
Remaining flits: 16195 16201 16206 16207 16208 16211 16212 (7 flits)
Measured flits: 16195 16201 16206 16207 16208 16211 16212 (7 flits)
Class 0:
Remaining flits: 16195 16201 16206 16207 16208 16211 16212 (7 flits)
Measured flits: 16195 16201 16206 16207 16208 16211 16212 (7 flits)
Class 0:
Remaining flits: 16195 16201 16206 16207 16208 16211 16212 (7 flits)
Measured flits: 16195 16201 16206 16207 16208 16211 16212 (7 flits)
Class 0:
Remaining flits: 16195 16201 16206 16207 16208 16211 16212 (7 flits)
Measured flits: 16195 16201 16206 16207 16208 16211 16212 (7 flits)
Class 0:
Remaining flits: 16195 16201 16206 16207 16208 16211 16212 (7 flits)
Measured flits: 16195 16201 16206 16207 16208 16211 16212 (7 flits)
Class 0:
Remaining flits: 16195 16201 16206 16207 16208 16211 16212 (7 flits)
Measured flits: 16195 16201 16206 16207 16208 16211 16212 (7 flits)
Class 0:
Remaining flits: 16195 16201 16206 16207 16208 16211 16212 (7 flits)
Measured flits: 16195 16201 16206 16207 16208 16211 16212 (7 flits)
Class 0:
Remaining flits: 16195 16201 16206 16207 16208 16211 16212 (7 flits)
Measured flits: 16195 16201 16206 16207 16208 16211 16212 (7 flits)
Class 0:
Remaining flits: 16195 16201 16206 16207 16208 16211 16212 (7 flits)
Measured flits: 16195 16201 16206 16207 16208 16211 16212 (7 flits)
Class 0:
Remaining flits: 16195 16201 16206 16207 16208 16211 16212 (7 flits)
Measured flits: 16195 16201 16206 16207 16208 16211 16212 (7 flits)
Class 0:
Remaining flits: 16195 16201 16206 16207 16208 16211 16212 (7 flits)
Measured flits: 16195 16201 16206 16207 16208 16211 16212 (7 flits)
Class 0:
Remaining flits: 16195 16201 16206 16207 16208 16211 16212 (7 flits)
Measured flits: 16195 16201 16206 16207 16208 16211 16212 (7 flits)
Class 0:
Remaining flits: 16195 16201 16206 16207 16208 16211 16212 (7 flits)
Measured flits: 16195 16201 16206 16207 16208 16211 16212 (7 flits)
Class 0:
Remaining flits: 16195 16201 16206 16207 16208 16211 16212 (7 flits)
Measured flits: 16195 16201 16206 16207 16208 16211 16212 (7 flits)
Class 0:
Remaining flits: 16195 16201 16206 16207 16208 16211 16212 (7 flits)
Measured flits: 16195 16201 16206 16207 16208 16211 16212 (7 flits)
Class 0:
Remaining flits: 16195 16201 16206 16207 16208 16211 16212 (7 flits)
Measured flits: 16195 16201 16206 16207 16208 16211 16212 (7 flits)
Class 0:
Remaining flits: 16195 16201 16206 16207 16208 16211 16212 (7 flits)
Measured flits: 16195 16201 16206 16207 16208 16211 16212 (7 flits)
Class 0:
Remaining flits: 16195 16201 16206 16207 16208 16211 16212 (7 flits)
Measured flits: 16195 16201 16206 16207 16208 16211 16212 (7 flits)
Class 0:
Remaining flits: 16195 16201 16206 16207 16208 16211 16212 (7 flits)
Measured flits: 16195 16201 16206 16207 16208 16211 16212 (7 flits)
Class 0:
Remaining flits: 16195 16201 16206 16207 16208 16211 16212 (7 flits)
Measured flits: 16195 16201 16206 16207 16208 16211 16212 (7 flits)
Class 0:
Remaining flits: 16195 16201 16206 16207 16208 16211 16212 (7 flits)
Measured flits: 16195 16201 16206 16207 16208 16211 16212 (7 flits)
Class 0:
Remaining flits: 16195 16201 16206 16207 16208 16211 16212 (7 flits)
Measured flits: 16195 16201 16206 16207 16208 16211 16212 (7 flits)
Class 0:
Remaining flits: 16195 16201 16206 16207 16208 16211 16212 (7 flits)
Measured flits: 16195 16201 16206 16207 16208 16211 16212 (7 flits)
Class 0:
Remaining flits: 16195 16201 16206 16207 16208 16211 16212 (7 flits)
Measured flits: 16195 16201 16206 16207 16208 16211 16212 (7 flits)
Class 0:
Remaining flits: 16195 16201 16206 16207 16208 16211 16212 (7 flits)
Measured flits: 16195 16201 16206 16207 16208 16211 16212 (7 flits)
Class 0:
Remaining flits: 16195 16201 16206 16207 16208 16211 16212 (7 flits)
Measured flits: 16195 16201 16206 16207 16208 16211 16212 (7 flits)
Class 0:
Remaining flits: 16195 16201 16206 16207 16208 16211 16212 (7 flits)
Measured flits: 16195 16201 16206 16207 16208 16211 16212 (7 flits)
Class 0:
Remaining flits: 16195 16201 16206 16207 16208 16211 16212 (7 flits)
Measured flits: 16195 16201 16206 16207 16208 16211 16212 (7 flits)
Class 0:
Remaining flits: 16195 16201 16206 16207 16208 16211 16212 (7 flits)
Measured flits: 16195 16201 16206 16207 16208 16211 16212 (7 flits)
Class 0:
Remaining flits: 16195 16201 16206 16207 16208 16211 16212 (7 flits)
Measured flits: 16195 16201 16206 16207 16208 16211 16212 (7 flits)
Class 0:
Remaining flits: 16195 16201 16206 16207 16208 16211 16212 (7 flits)
Measured flits: 16195 16201 16206 16207 16208 16211 16212 (7 flits)
Class 0:
Remaining flits: 16195 16201 16206 16207 16208 16211 16212 (7 flits)
Measured flits: 16195 16201 16206 16207 16208 16211 16212 (7 flits)
Class 0:
Remaining flits: 16195 16201 16206 16207 16208 16211 16212 (7 flits)
Measured flits: 16195 16201 16206 16207 16208 16211 16212 (7 flits)
Class 0:
Remaining flits: 16195 16201 16206 16207 16208 16211 16212 (7 flits)
Measured flits: 16195 16201 16206 16207 16208 16211 16212 (7 flits)
Class 0:
Remaining flits: 16195 16201 16206 16207 16208 16211 16212 (7 flits)
Measured flits: 16195 16201 16206 16207 16208 16211 16212 (7 flits)
Class 0:
Remaining flits: 16195 16201 16206 16207 16208 16211 16212 (7 flits)
Measured flits: 16195 16201 16206 16207 16208 16211 16212 (7 flits)
Class 0:
Remaining flits: 16195 16201 16206 16207 16208 16211 16212 (7 flits)
Measured flits: 16195 16201 16206 16207 16208 16211 16212 (7 flits)
Class 0:
Remaining flits: 16195 16201 16206 16207 16208 16211 16212 (7 flits)
Measured flits: 16195 16201 16206 16207 16208 16211 16212 (7 flits)
Class 0:
Remaining flits: 16195 16201 16206 16207 16208 16211 16212 (7 flits)
Measured flits: 16195 16201 16206 16207 16208 16211 16212 (7 flits)
Class 0:
Remaining flits: 16195 16201 16206 16207 16208 16211 16212 (7 flits)
Measured flits: 16195 16201 16206 16207 16208 16211 16212 (7 flits)
Time taken is 7000 cycles
====== Traffic class 0 ======

Total number of flits generated = 16215, changed lanes = 16030
Overall minimum packet latency = 1094 (1 samples)
Overall average packet latency = 1771.84 (1 samples)
Overall maximum packet latency = 2517 (1 samples)
Overall minimum network latency = 97 (1 samples)
Overall average network latency = 127.814 (1 samples)
Overall maximum network latency = 230 (1 samples)
Overall minimum flit latency = 97 (1 samples)
Overall average flit latency = 127.939 (1 samples)
Overall maximum flit latency = 230 (1 samples)
Overall minimum fragmentation = 0 (1 samples)
Overall average fragmentation = 0 (1 samples)
Overall maximum fragmentation = 0 (1 samples)
Overall minimum injected packet rate = 0.165667 (1 samples)
Overall average injected packet rate = 0.166292 (1 samples)
Overall maximum injected packet rate = 0.166667 (1 samples)
Overall minimum accepted packet rate = 0.153333 (1 samples)
Overall average accepted packet rate = 0.166458 (1 samples)
Overall maximum accepted packet rate = 0.181 (1 samples)
Overall minimum injected flit rate = 0.165667 (1 samples)
Overall average injected flit rate = 0.166292 (1 samples)
Overall maximum injected flit rate = 0.166667 (1 samples)
Overall minimum accepted flit rate = 0.153333 (1 samples)
Overall average accepted flit rate = 0.166458 (1 samples)
Overall maximum accepted flit rate = 0.181 (1 samples)
Overall average injected packet size = 1 (1 samples)
Overall average accepted packet size = 1 (1 samples)
Overall average hops = 2.97731 (1 samples)
Overall throughput of the network (flits/cycle) = 5.40267
Overall throughput of the network (packets/cycle) = 5.40267
Total run time 4114.68
