make: Nothing to be done for `all'.
Master: Running timer....
Master: Running SRC....
BEGIN Configuration File: ./examples/bitrev
// Topology

topology = torus;
k = 4;
n = 2;

// Routing
routing_function = dim_order;

// Flow control
num_vcs     = 4;
vc_buf_size = 4;
wait_for_tail_credit = 0;

// Router architecture
vc_allocator = islip;
sw_allocator = islip;
alloc_iters  = 1;

credit_delay   = 1;
routing_delay  = 1;
vc_alloc_delay = 1;
sw_alloc_delay = 1;

input_speedup     = 1;
output_speedup    = 1;
internal_speedup  = 1.0;

vc_busy_when_full = 0;

// Traffic
traffic = uniform;
packet_size = 1;

// Simulation
sim_type = throughput;

injection_rate = 0.05;

END Configuration File: ./examples/bitrev
===== Time: 1000 =====
Class 0:
Minimum packet latency = 8
Average packet latency = 34.3439
Maximum packet latency = 80
Minimum network latency = 9
Average network latency = 35.3439
Maximum network latency = 81
Slowest packet = 16
Minimum flit latency = 9
Average flit latency = 35.3439
Maximum flit latency = 81
Slowest flit = 16
Minimum fragmentation = 0
Average fragmentation = 0
Maximum fragmentation = 0
Minimum injected packet rate = 0.041 (at node 5)
Average injected packet rate = 0.048875
Maximum injected packet rate = 0.054 (at node 1)
Minimum accepted packet rate = 0.033 (at node 6)
Average accepted packet rate = 0.04725
Maximum accepted packet rate = 0.056 (at node 0)
Minimum injected flit rate = 0.041 (at node 5)
Average injected flit rate = 0.048875
Maximum injected flit rate = 0.054 (at node 1)
Minimum accepted flit rate = 0.033 (at node 6)
Average accepted flit rate = 0.04725
Maximum accepted flit rate = 0.056 (at node 0)
Total number of injected packets = 782
Total number of injected flits = 782
Average injected packet length = 1
Total number of accepted packets = 756
Total number of accepted flits = 756
Average accepted packet length = 1
Total in-flight flits = 26 (0 measured)
===== Time: 2000 =====
Class 0:
Minimum packet latency = 8
Average packet latency = 34.8654
Maximum packet latency = 177
Minimum network latency = 9
Average network latency = 35.8654
Maximum network latency = 178
Slowest packet = 1297
Minimum flit latency = 9
Average flit latency = 35.8654
Maximum flit latency = 178
Slowest flit = 1297
Minimum fragmentation = 0
Average fragmentation = 0
Maximum fragmentation = 0
Minimum injected packet rate = 0.0395 (at node 8)
Average injected packet rate = 0.049125
Maximum injected packet rate = 0.057 (at node 12)
Minimum accepted packet rate = 0.04 (at node 6)
Average accepted packet rate = 0.0482812
Maximum accepted packet rate = 0.055 (at node 8)
Minimum injected flit rate = 0.0395 (at node 8)
Average injected flit rate = 0.049125
Maximum injected flit rate = 0.057 (at node 12)
Minimum accepted flit rate = 0.04 (at node 6)
Average accepted flit rate = 0.0482812
Maximum accepted flit rate = 0.055 (at node 8)
Total number of injected packets = 1572
Total number of injected flits = 1572
Average injected packet length = 1
Total number of accepted packets = 1545
Total number of accepted flits = 1545
Average accepted packet length = 1
Total in-flight flits = 27 (0 measured)
===== Time: 3000 =====
Class 0:
Minimum packet latency = 9
Average packet latency = 35.8382
Maximum packet latency = 229
Minimum network latency = 10
Average network latency = 36.8382
Maximum network latency = 230
Slowest packet = 2032
Minimum flit latency = 10
Average flit latency = 36.8382
Maximum flit latency = 230
Slowest flit = 2032
Minimum fragmentation = 0
Average fragmentation = 0
Maximum fragmentation = 0
Minimum injected packet rate = 0.045 (at node 4)
Average injected packet rate = 0.0518125
Maximum injected packet rate = 0.059 (at node 1)
Minimum accepted packet rate = 0.038 (at node 10)
Average accepted packet rate = 0.051375
Maximum accepted packet rate = 0.065 (at node 8)
Minimum injected flit rate = 0.045 (at node 4)
Average injected flit rate = 0.0518125
Maximum injected flit rate = 0.059 (at node 1)
Minimum accepted flit rate = 0.038 (at node 10)
Average accepted flit rate = 0.051375
Maximum accepted flit rate = 0.065 (at node 8)
Total number of injected packets = 829
Total number of injected flits = 829
Average injected packet length = 1
Total number of accepted packets = 822
Total number of accepted flits = 822
Average accepted packet length = 1
Total in-flight flits = 34 (0 measured)
===== Time: 4000 =====
Class 0:
Minimum packet latency = 9
Average packet latency = 36.0623
Maximum packet latency = 145
Minimum network latency = 10
Average network latency = 37.0623
Maximum network latency = 146
Slowest packet = 2955
Minimum flit latency = 10
Average flit latency = 37.0842
Maximum flit latency = 146
Slowest flit = 2955
Minimum fragmentation = 0
Average fragmentation = 0
Maximum fragmentation = 0
Minimum injected packet rate = 0.035 (at node 0)
Average injected packet rate = 0.0480625
Maximum injected packet rate = 0.057 (at node 9)
Minimum accepted packet rate = 0.034 (at node 4)
Average accepted packet rate = 0.04825
Maximum accepted packet rate = 0.06 (at node 8)
Minimum injected flit rate = 0.035 (at node 0)
Average injected flit rate = 0.0480625
Maximum injected flit rate = 0.057 (at node 9)
Minimum accepted flit rate = 0.034 (at node 4)
Average accepted flit rate = 0.04825
Maximum accepted flit rate = 0.06 (at node 8)
Total number of injected packets = 769
Total number of injected flits = 769
Average injected packet length = 1
Total number of accepted packets = 772
Total number of accepted flits = 772
Average accepted packet length = 1
Total in-flight flits = 31 (31 measured)
===== Time: 5000 =====
Class 0:
Minimum packet latency = 8
Average packet latency = 35.758
Maximum packet latency = 479
Minimum network latency = 9
Average network latency = 36.758
Maximum network latency = 480
Slowest packet = 3212
Minimum flit latency = 9
Average flit latency = 36.7757
Maximum flit latency = 480
Slowest flit = 3212
Minimum fragmentation = 0
Average fragmentation = 0
Maximum fragmentation = 0
Minimum injected packet rate = 0.0365 (at node 0)
Average injected packet rate = 0.0476875
Maximum injected packet rate = 0.0575 (at node 9)
Minimum accepted packet rate = 0.0355 (at node 4)
Average accepted packet rate = 0.0479375
Maximum accepted packet rate = 0.0575 (at node 13)
Minimum injected flit rate = 0.0365 (at node 0)
Average injected flit rate = 0.0476875
Maximum injected flit rate = 0.0575 (at node 9)
Minimum accepted flit rate = 0.0355 (at node 4)
Average accepted flit rate = 0.0479375
Maximum accepted flit rate = 0.0575 (at node 13)
Total number of injected packets = 1526
Total number of injected flits = 1526
Average injected packet length = 1
Total number of accepted packets = 1534
Total number of accepted flits = 1534
Average accepted packet length = 1
Total in-flight flits = 26 (26 measured)
===== Time: 6000 =====
Class 0:
Minimum packet latency = 8
Average packet latency = 35.8648
Maximum packet latency = 479
Minimum network latency = 9
Average network latency = 36.8648
Maximum network latency = 480
Slowest packet = 3212
Minimum flit latency = 9
Average flit latency = 36.8749
Maximum flit latency = 480
Slowest flit = 3212
Minimum fragmentation = 0
Average fragmentation = 0
Maximum fragmentation = 0
Minimum injected packet rate = 0.041 (at node 0)
Average injected packet rate = 0.0481667
Maximum injected packet rate = 0.057 (at node 15)
Minimum accepted packet rate = 0.039 (at node 4)
Average accepted packet rate = 0.0483125
Maximum accepted packet rate = 0.0563333 (at node 13)
Minimum injected flit rate = 0.041 (at node 0)
Average injected flit rate = 0.0481667
Maximum injected flit rate = 0.057 (at node 15)
Minimum accepted flit rate = 0.039 (at node 4)
Average accepted flit rate = 0.0483125
Maximum accepted flit rate = 0.0563333 (at node 13)
Total number of injected packets = 2312
Total number of injected flits = 2312
Average injected packet length = 1
Total number of accepted packets = 2319
Total number of accepted flits = 2319
Average accepted packet length = 1
Total in-flight flits = 27 (27 measured)
===== Time: 7000 =====
Class 0:
Minimum packet latency = 8
Average packet latency = 35.8271
Maximum packet latency = 479
Minimum network latency = 9
Average network latency = 36.8271
Maximum network latency = 480
Slowest packet = 3212
Minimum flit latency = 9
Average flit latency = 36.835
Maximum flit latency = 480
Slowest flit = 3212
Minimum fragmentation = 0
Average fragmentation = 0
Maximum fragmentation = 0
Minimum injected packet rate = 0.04275 (at node 0)
Average injected packet rate = 0.0488906
Maximum injected packet rate = 0.054 (at node 15)
Minimum accepted packet rate = 0.0405 (at node 4)
Average accepted packet rate = 0.0490625
Maximum accepted packet rate = 0.057 (at node 13)
Minimum injected flit rate = 0.04275 (at node 0)
Average injected flit rate = 0.0488906
Maximum injected flit rate = 0.054 (at node 15)
Minimum accepted flit rate = 0.0405 (at node 4)
Average accepted flit rate = 0.0490625
Maximum accepted flit rate = 0.057 (at node 13)
Total number of injected packets = 3129
Total number of injected flits = 3129
Average injected packet length = 1
Total number of accepted packets = 3140
Total number of accepted flits = 3140
Average accepted packet length = 1
Total in-flight flits = 23 (23 measured)
Draining remaining packets ...
Class 0:
Remaining flits: 5504 5511 5512 5513 5514 5515 5516 5518 5520 5521 [...] (18 flits)
Measured flits: 5504 5511 5512 5513 5514 5515 5516 5518 5520 5521 [...] (18 flits)
Class 0:
Remaining flits: 5514 5521 5522 5523 5524 5525 5526 5527 5528 5529 (10 flits)
Measured flits: 5514 5521 5522 5523 5524 5525 5526 5527 5528 5529 (10 flits)
Class 0:
Remaining flits: 5521 5523 5525 5526 5527 5529 (6 flits)
Measured flits: 5521 5523 5525 5526 5527 5529 (6 flits)
Class 0:
Remaining flits: 5526 (1 flits)
Measured flits: 5526 (1 flits)
Class 0:
Remaining flits: (0 flits)
Measured flits: (0 flits)
Class 0:
Remaining flits: (0 flits)
Measured flits: (0 flits)
Class 0:
Remaining flits: (0 flits)
Measured flits: (0 flits)
Class 0:
Remaining flits: (0 flits)
Measured flits: (0 flits)
Class 0:
Remaining flits: (0 flits)
Measured flits: (0 flits)
Class 0:
Remaining flits: (0 flits)
Measured flits: (0 flits)
Class 0:
Remaining flits: (0 flits)
Measured flits: (0 flits)
Class 0:
Remaining flits: (0 flits)
Measured flits: (0 flits)
Class 0:
Remaining flits: (0 flits)
Measured flits: (0 flits)
Class 0:
Remaining flits: (0 flits)
Measured flits: (0 flits)
Class 0:
Remaining flits: (0 flits)
Measured flits: (0 flits)
Class 0:
Remaining flits: (0 flits)
Measured flits: (0 flits)
Class 0:
Remaining flits: (0 flits)
Measured flits: (0 flits)
Class 0:
Remaining flits: (0 flits)
Measured flits: (0 flits)
Class 0:
Remaining flits: (0 flits)
Measured flits: (0 flits)
Class 0:
Remaining flits: (0 flits)
Measured flits: (0 flits)
Class 0:
Remaining flits: (0 flits)
Measured flits: (0 flits)
Class 0:
Remaining flits: (0 flits)
Measured flits: (0 flits)
Class 0:
Remaining flits: (0 flits)
Measured flits: (0 flits)
Class 0:
Remaining flits: (0 flits)
Measured flits: (0 flits)
Class 0:
Remaining flits: (0 flits)
Measured flits: (0 flits)
Class 0:
Remaining flits: (0 flits)
Measured flits: (0 flits)
Class 0:
Remaining flits: (0 flits)
Measured flits: (0 flits)
Class 0:
Remaining flits: (0 flits)
Measured flits: (0 flits)
Class 0:
Remaining flits: (0 flits)
Measured flits: (0 flits)
Class 0:
Remaining flits: (0 flits)
Measured flits: (0 flits)
Class 0:
Remaining flits: (0 flits)
Measured flits: (0 flits)
Class 0:
Remaining flits: (0 flits)
Measured flits: (0 flits)
Class 0:
Remaining flits: (0 flits)
Measured flits: (0 flits)
Class 0:
Remaining flits: (0 flits)
Measured flits: (0 flits)
Class 0:
Remaining flits: (0 flits)
Measured flits: (0 flits)
Class 0:
Remaining flits: (0 flits)
Measured flits: (0 flits)
Class 0:
Remaining flits: (0 flits)
Measured flits: (0 flits)
Class 0:
Remaining flits: (0 flits)
Measured flits: (0 flits)
Class 0:
Remaining flits: (0 flits)
Measured flits: (0 flits)
Class 0:
Remaining flits: (0 flits)
Measured flits: (0 flits)
Class 0:
Remaining flits: (0 flits)
Measured flits: (0 flits)
Class 0:
Remaining flits: (0 flits)
Measured flits: (0 flits)
Class 0:
Remaining flits: (0 flits)
Measured flits: (0 flits)
Class 0:
Remaining flits: (0 flits)
Measured flits: (0 flits)
Class 0:
Remaining flits: (0 flits)
Measured flits: (0 flits)
Class 0:
Remaining flits: (0 flits)
Measured flits: (0 flits)
Class 0:
Remaining flits: (0 flits)
Measured flits: (0 flits)
Class 0:
Remaining flits: (0 flits)
Measured flits: (0 flits)
Class 0:
Remaining flits: (0 flits)
Measured flits: (0 flits)
Class 0:
Remaining flits: (0 flits)
Measured flits: (0 flits)
Class 0:
Remaining flits: (0 flits)
Measured flits: (0 flits)
Class 0:
Remaining flits: (0 flits)
Measured flits: (0 flits)
Class 0:
Remaining flits: (0 flits)
Measured flits: (0 flits)
Class 0:
Remaining flits: (0 flits)
Measured flits: (0 flits)
Class 0:
Remaining flits: (0 flits)
Measured flits: (0 flits)
Class 0:
Remaining flits: (0 flits)
Measured flits: (0 flits)
Class 0:
Remaining flits: (0 flits)
Measured flits: (0 flits)
Class 0:
Remaining flits: (0 flits)
Measured flits: (0 flits)
Class 0:
Remaining flits: (0 flits)
Measured flits: (0 flits)
Class 0:
Remaining flits: (0 flits)
Measured flits: (0 flits)
Class 0:
Remaining flits: (0 flits)
Measured flits: (0 flits)
Class 0:
Remaining flits: (0 flits)
Measured flits: (0 flits)
Class 0:
Remaining flits: (0 flits)
Measured flits: (0 flits)
Class 0:
Remaining flits: (0 flits)
Measured flits: (0 flits)
Class 0:
Remaining flits: (0 flits)
Measured flits: (0 flits)
Class 0:
Remaining flits: (0 flits)
Measured flits: (0 flits)
Class 0:
Remaining flits: (0 flits)
Measured flits: (0 flits)
Class 0:
Remaining flits: (0 flits)
Measured flits: (0 flits)
Class 0:
Remaining flits: (0 flits)
Measured flits: (0 flits)
Class 0:
Remaining flits: (0 flits)
Measured flits: (0 flits)
Class 0:
Remaining flits: (0 flits)
Measured flits: (0 flits)
Class 0:
Remaining flits: (0 flits)
Measured flits: (0 flits)
Class 0:
Remaining flits: (0 flits)
Measured flits: (0 flits)
Class 0:
Remaining flits: (0 flits)
Measured flits: (0 flits)
Class 0:
Remaining flits: (0 flits)
Measured flits: (0 flits)
Class 0:
Remaining flits: (0 flits)
Measured flits: (0 flits)
Class 0:
Remaining flits: (0 flits)
Measured flits: (0 flits)
Class 0:
Remaining flits: (0 flits)
Measured flits: (0 flits)
Class 0:
Remaining flits: (0 flits)
Measured flits: (0 flits)
Class 0:
Remaining flits: (0 flits)
Measured flits: (0 flits)
Class 0:
Remaining flits: (0 flits)
Measured flits: (0 flits)
Class 0:
Remaining flits: (0 flits)
Measured flits: (0 flits)
Class 0:
Remaining flits: (0 flits)
Measured flits: (0 flits)
Class 0:
Remaining flits: (0 flits)
Measured flits: (0 flits)
Class 0:
Remaining flits: (0 flits)
Measured flits: (0 flits)
Class 0:
Remaining flits: (0 flits)
Measured flits: (0 flits)
Class 0:
Remaining flits: (0 flits)
Measured flits: (0 flits)
Class 0:
Remaining flits: (0 flits)
Measured flits: (0 flits)
Class 0:
Remaining flits: (0 flits)
Measured flits: (0 flits)
Class 0:
Remaining flits: (0 flits)
Measured flits: (0 flits)
Class 0:
Remaining flits: (0 flits)
Measured flits: (0 flits)
Class 0:
Remaining flits: (0 flits)
Measured flits: (0 flits)
Class 0:
Remaining flits: (0 flits)
Measured flits: (0 flits)
Class 0:
Remaining flits: (0 flits)
Measured flits: (0 flits)
Class 0:
Remaining flits: (0 flits)
Measured flits: (0 flits)
Class 0:
Remaining flits: (0 flits)
Measured flits: (0 flits)
Class 0:
Remaining flits: (0 flits)
Measured flits: (0 flits)
Class 0:
Remaining flits: (0 flits)
Measured flits: (0 flits)
Class 0:
Remaining flits: (0 flits)
Measured flits: (0 flits)
Class 0:
Remaining flits: (0 flits)
Measured flits: (0 flits)
Class 0:
Remaining flits: (0 flits)
Measured flits: (0 flits)
Time taken is 8000 cycles
====== Traffic class 0 ======

Total number of flits generated = 5530, changed lanes = 5285
Overall minimum packet latency = 8 (1 samples)
Overall average packet latency = 35.8309 (1 samples)
Overall maximum packet latency = 479 (1 samples)
Overall minimum network latency = 9 (1 samples)
Overall average network latency = 36.8309 (1 samples)
Overall maximum network latency = 480 (1 samples)
Overall minimum flit latency = 9 (1 samples)
Overall average flit latency = 36.8388 (1 samples)
Overall maximum flit latency = 480 (1 samples)
Overall minimum fragmentation = 0 (1 samples)
Overall average fragmentation = 0 (1 samples)
Overall maximum fragmentation = 0 (1 samples)
Overall minimum injected packet rate = 0.04275 (1 samples)
Overall average injected packet rate = 0.0488906 (1 samples)
Overall maximum injected packet rate = 0.054 (1 samples)
Overall minimum accepted packet rate = 0.0405 (1 samples)
Overall average accepted packet rate = 0.0490625 (1 samples)
Overall maximum accepted packet rate = 0.057 (1 samples)
Overall minimum injected flit rate = 0.04275 (1 samples)
Overall average injected flit rate = 0.0488906 (1 samples)
Overall maximum injected flit rate = 0.054 (1 samples)
Overall minimum accepted flit rate = 0.0405 (1 samples)
Overall average accepted flit rate = 0.0490625 (1 samples)
Overall maximum accepted flit rate = 0.057 (1 samples)
Overall average injected packet size = 1 (1 samples)
Overall average accepted packet size = 1 (1 samples)
Overall average hops = 3.01182 (1 samples)
Overall throughput of the network (flits/cycle) = 1.3825
Overall throughput of the network (packets/cycle) = 1.3825
Total run time 12.1102
