make: Nothing to be done for 'all'.
Master: Running timer....
Master: Running SRC....
BEGIN Configuration File: ./examples/bitrev
// Topology

topology = torus;
k = 4;
n = 2;

// Routing
routing_function = dim_order;

// Flow control
num_vcs     = 4;
vc_buf_size = 4;
wait_for_tail_credit = 0;

// Router architecture
vc_allocator = islip;
sw_allocator = islip;
alloc_iters  = 1;

credit_delay   = 1;
routing_delay  = 1;
vc_alloc_delay = 1;
sw_alloc_delay = 1;

input_speedup     = 1;
output_speedup    = 1;
internal_speedup  = 1.0;

vc_busy_when_full = 0;

// Traffic
traffic = uniform;
packet_size = 1;

// Simulation
sim_type = throughput;

injection_rate = 0.05;

END Configuration File: ./examples/bitrev
===== Time: 10000 =====
Class 0:
Minimum packet latency = 7
Average packet latency = 25.63
Maximum packet latency = 450
Minimum network latency = 8
Average network latency = 26.63
Maximum network latency = 451
Slowest packet = 7411
Minimum flit latency = 8
Average flit latency = 26.63
Maximum flit latency = 451
Slowest flit = 7411
Minimum fragmentation = 0
Average fragmentation = 0
Maximum fragmentation = 0
Minimum injected packet rate = 0.0458 (at node 0)
Average injected packet rate = 0.0494687
Maximum injected packet rate = 0.0515 (at node 12)
Minimum accepted packet rate = 0.0443 (at node 4)
Average accepted packet rate = 0.0493625
Maximum accepted packet rate = 0.0529 (at node 11)
Minimum injected flit rate = 0.0458 (at node 0)
Average injected flit rate = 0.0494687
Maximum injected flit rate = 0.0515 (at node 12)
Minimum accepted flit rate = 0.0443 (at node 4)
Average accepted flit rate = 0.0493625
Maximum accepted flit rate = 0.0529 (at node 11)
Total number of injected packets = 7915
Total number of injected flits = 7915
Average injected packet length = 1
Total number of accepted packets = 7898
Total number of accepted flits = 7898
Average accepted packet length = 1
Total in-flight flits = 17 (0 measured)
===== Time: 20000 =====
Class 0:
Minimum packet latency = 7
Average packet latency = 25.879
Maximum packet latency = 450
Minimum network latency = 8
Average network latency = 26.879
Maximum network latency = 451
Slowest packet = 7411
Minimum flit latency = 8
Average flit latency = 26.879
Maximum flit latency = 451
Slowest flit = 7411
Minimum fragmentation = 0
Average fragmentation = 0
Maximum fragmentation = 0
Minimum injected packet rate = 0.0483 (at node 8)
Average injected packet rate = 0.0500375
Maximum injected packet rate = 0.0526 (at node 12)
Minimum accepted packet rate = 0.04495 (at node 4)
Average accepted packet rate = 0.0499594
Maximum accepted packet rate = 0.0528 (at node 11)
Minimum injected flit rate = 0.0483 (at node 8)
Average injected flit rate = 0.0500375
Maximum injected flit rate = 0.0526 (at node 12)
Minimum accepted flit rate = 0.04495 (at node 4)
Average accepted flit rate = 0.0499594
Maximum accepted flit rate = 0.0528 (at node 11)
Total number of injected packets = 16012
Total number of injected flits = 16012
Average injected packet length = 1
Total number of accepted packets = 15987
Total number of accepted flits = 15987
Average accepted packet length = 1
Total in-flight flits = 25 (0 measured)
===== Time: 30000 =====
Class 0:
Minimum packet latency = 7
Average packet latency = 26.5814
Maximum packet latency = 402
Minimum network latency = 8
Average network latency = 27.5814
Maximum network latency = 403
Slowest packet = 18578
Minimum flit latency = 8
Average flit latency = 27.5814
Maximum flit latency = 403
Slowest flit = 18578
Minimum fragmentation = 0
Average fragmentation = 0
Maximum fragmentation = 0
Minimum injected packet rate = 0.045 (at node 15)
Average injected packet rate = 0.0495875
Maximum injected packet rate = 0.0541 (at node 13)
Minimum accepted packet rate = 0.0448 (at node 4)
Average accepted packet rate = 0.0496
Maximum accepted packet rate = 0.0543 (at node 7)
Minimum injected flit rate = 0.045 (at node 15)
Average injected flit rate = 0.0495875
Maximum injected flit rate = 0.0541 (at node 13)
Minimum accepted flit rate = 0.0448 (at node 4)
Average accepted flit rate = 0.0496
Maximum accepted flit rate = 0.0543 (at node 7)
Total number of injected packets = 7934
Total number of injected flits = 7934
Average injected packet length = 1
Total number of accepted packets = 7936
Total number of accepted flits = 7936
Average accepted packet length = 1
Total in-flight flits = 23 (0 measured)
===== Time: 40000 =====
Class 0:
Minimum packet latency = 7
Average packet latency = 25.6264
Maximum packet latency = 263
Minimum network latency = 8
Average network latency = 26.6264
Maximum network latency = 264
Slowest packet = 26798
Minimum flit latency = 8
Average flit latency = 26.7186
Maximum flit latency = 264
Slowest flit = 24501
Minimum fragmentation = 0
Average fragmentation = 0
Maximum fragmentation = 0
Minimum injected packet rate = 0.0473 (at node 6)
Average injected packet rate = 0.0501938
Maximum injected packet rate = 0.0543 (at node 14)
Minimum accepted packet rate = 0.0473 (at node 0)
Average accepted packet rate = 0.0502
Maximum accepted packet rate = 0.0549 (at node 2)
Minimum injected flit rate = 0.0473 (at node 6)
Average injected flit rate = 0.0501938
Maximum injected flit rate = 0.0543 (at node 14)
Minimum accepted flit rate = 0.0473 (at node 0)
Average accepted flit rate = 0.0502
Maximum accepted flit rate = 0.0549 (at node 2)
Total number of injected packets = 8031
Total number of injected flits = 8031
Average injected packet length = 1
Total number of accepted packets = 8032
Total number of accepted flits = 8032
Average accepted packet length = 1
Total in-flight flits = 22 (22 measured)
===== Time: 50000 =====
Class 0:
Minimum packet latency = 7
Average packet latency = 25.5496
Maximum packet latency = 375
Minimum network latency = 8
Average network latency = 26.5496
Maximum network latency = 376
Slowest packet = 32771
Minimum flit latency = 8
Average flit latency = 26.5958
Maximum flit latency = 376
Slowest flit = 32771
Minimum fragmentation = 0
Average fragmentation = 0
Maximum fragmentation = 0
Minimum injected packet rate = 0.04815 (at node 10)
Average injected packet rate = 0.0503
Maximum injected packet rate = 0.05345 (at node 14)
Minimum accepted packet rate = 0.0477 (at node 12)
Average accepted packet rate = 0.0503031
Maximum accepted packet rate = 0.0527 (at node 7)
Minimum injected flit rate = 0.04815 (at node 10)
Average injected flit rate = 0.0503
Maximum injected flit rate = 0.05345 (at node 14)
Minimum accepted flit rate = 0.0477 (at node 12)
Average accepted flit rate = 0.0503031
Maximum accepted flit rate = 0.0527 (at node 7)
Total number of injected packets = 16096
Total number of injected flits = 16096
Average injected packet length = 1
Total number of accepted packets = 16097
Total number of accepted flits = 16097
Average accepted packet length = 1
Total in-flight flits = 22 (22 measured)
===== Time: 60000 =====
Class 0:
Minimum packet latency = 7
Average packet latency = 25.6491
Maximum packet latency = 417
Minimum network latency = 8
Average network latency = 26.6485
Maximum network latency = 418
Slowest packet = 44609
Minimum flit latency = 8
Average flit latency = 26.6792
Maximum flit latency = 418
Slowest flit = 44609
Minimum fragmentation = 0
Average fragmentation = 0
Maximum fragmentation = 0
Minimum injected packet rate = 0.0482333 (at node 10)
Average injected packet rate = 0.0501896
Maximum injected packet rate = 0.0529 (at node 14)
Minimum accepted packet rate = 0.0479333 (at node 0)
Average accepted packet rate = 0.0501938
Maximum accepted packet rate = 0.0521 (at node 11)
Minimum injected flit rate = 0.0482333 (at node 10)
Average injected flit rate = 0.0501896
Maximum injected flit rate = 0.0529 (at node 14)
Minimum accepted flit rate = 0.0479333 (at node 0)
Average accepted flit rate = 0.0501938
Maximum accepted flit rate = 0.0521 (at node 11)
Total number of injected packets = 24091
Total number of injected flits = 24091
Average injected packet length = 1
Total number of accepted packets = 24093
Total number of accepted flits = 24093
Average accepted packet length = 1
Total in-flight flits = 21 (21 measured)
Draining remaining packets ...
Class 0:
Remaining flits: 47964 48000 48010 48021 48023 48025 48026 48027 48029 48030 [...] (15 flits)
Measured flits: 47964 48000 48010 48021 48023 48025 48026 48027 48029 48030 [...] (15 flits)
Class 0:
Remaining flits: 47964 48000 48010 48021 48026 48027 48029 48031 48034 48035 [...] (11 flits)
Measured flits: 47964 48000 48010 48021 48026 48027 48029 48031 48034 48035 [...] (11 flits)
Class 0:
Remaining flits: 47964 48000 48010 48031 (4 flits)
Measured flits: 47964 48000 48010 48031 (4 flits)
Class 0:
Remaining flits: 47964 48000 48010 (3 flits)
Measured flits: 47964 48000 48010 (3 flits)
Class 0:
Remaining flits: 47964 48000 48010 (3 flits)
Measured flits: 47964 48000 48010 (3 flits)
Class 0:
Remaining flits: 47964 48000 48010 (3 flits)
Measured flits: 47964 48000 48010 (3 flits)
Class 0:
Remaining flits: 47964 48000 48010 (3 flits)
Measured flits: 47964 48000 48010 (3 flits)
Class 0:
Remaining flits: 47964 48000 48010 (3 flits)
Measured flits: 47964 48000 48010 (3 flits)
Class 0:
Remaining flits: 47964 48000 48010 (3 flits)
Measured flits: 47964 48000 48010 (3 flits)
Class 0:
Remaining flits: 47964 48000 48010 (3 flits)
Measured flits: 47964 48000 48010 (3 flits)
Class 0:
Remaining flits: 47964 48000 48010 (3 flits)
Measured flits: 47964 48000 48010 (3 flits)
Class 0:
Remaining flits: 47964 48000 48010 (3 flits)
Measured flits: 47964 48000 48010 (3 flits)
Class 0:
Remaining flits: 47964 48000 48010 (3 flits)
Measured flits: 47964 48000 48010 (3 flits)
Class 0:
Remaining flits: 47964 48000 48010 (3 flits)
Measured flits: 47964 48000 48010 (3 flits)
Class 0:
Remaining flits: 47964 48000 48010 (3 flits)
Measured flits: 47964 48000 48010 (3 flits)
Class 0:
Remaining flits: 47964 48000 48010 (3 flits)
Measured flits: 47964 48000 48010 (3 flits)
Class 0:
Remaining flits: 47964 48000 48010 (3 flits)
Measured flits: 47964 48000 48010 (3 flits)
Class 0:
Remaining flits: 47964 48000 48010 (3 flits)
Measured flits: 47964 48000 48010 (3 flits)
Class 0:
Remaining flits: 47964 48000 48010 (3 flits)
Measured flits: 47964 48000 48010 (3 flits)
Class 0:
Remaining flits: 47964 48000 48010 (3 flits)
Measured flits: 47964 48000 48010 (3 flits)
Class 0:
Remaining flits: 47964 48000 48010 (3 flits)
Measured flits: 47964 48000 48010 (3 flits)
Class 0:
Remaining flits: 47964 48000 48010 (3 flits)
Measured flits: 47964 48000 48010 (3 flits)
Class 0:
Remaining flits: 47964 48000 48010 (3 flits)
Measured flits: 47964 48000 48010 (3 flits)
Class 0:
Remaining flits: 47964 48000 48010 (3 flits)
Measured flits: 47964 48000 48010 (3 flits)
Class 0:
Remaining flits: 47964 48000 48010 (3 flits)
Measured flits: 47964 48000 48010 (3 flits)
Class 0:
Remaining flits: 47964 48000 48010 (3 flits)
Measured flits: 47964 48000 48010 (3 flits)
Class 0:
Remaining flits: 47964 48000 48010 (3 flits)
Measured flits: 47964 48000 48010 (3 flits)
Class 0:
Remaining flits: 47964 48000 48010 (3 flits)
Measured flits: 47964 48000 48010 (3 flits)
Class 0:
Remaining flits: 47964 48000 48010 (3 flits)
Measured flits: 47964 48000 48010 (3 flits)
Class 0:
Remaining flits: 47964 48000 48010 (3 flits)
Measured flits: 47964 48000 48010 (3 flits)
Class 0:
Remaining flits: 47964 48000 48010 (3 flits)
Measured flits: 47964 48000 48010 (3 flits)
Class 0:
Remaining flits: 47964 48000 48010 (3 flits)
Measured flits: 47964 48000 48010 (3 flits)
Class 0:
Remaining flits: 47964 48000 48010 (3 flits)
Measured flits: 47964 48000 48010 (3 flits)
Class 0:
Remaining flits: 47964 48000 48010 (3 flits)
Measured flits: 47964 48000 48010 (3 flits)
Class 0:
Remaining flits: 47964 48000 48010 (3 flits)
Measured flits: 47964 48000 48010 (3 flits)
Class 0:
Remaining flits: 47964 48000 48010 (3 flits)
Measured flits: 47964 48000 48010 (3 flits)
Class 0:
Remaining flits: 47964 48000 48010 (3 flits)
Measured flits: 47964 48000 48010 (3 flits)
Class 0:
Remaining flits: 47964 48000 48010 (3 flits)
Measured flits: 47964 48000 48010 (3 flits)
Class 0:
Remaining flits: 47964 48000 48010 (3 flits)
Measured flits: 47964 48000 48010 (3 flits)
Class 0:
Remaining flits: 47964 48000 48010 (3 flits)
Measured flits: 47964 48000 48010 (3 flits)
Class 0:
Remaining flits: 47964 48000 48010 (3 flits)
Measured flits: 47964 48000 48010 (3 flits)
Class 0:
Remaining flits: 47964 48000 48010 (3 flits)
Measured flits: 47964 48000 48010 (3 flits)
Class 0:
Remaining flits: 47964 48000 48010 (3 flits)
Measured flits: 47964 48000 48010 (3 flits)
Class 0:
Remaining flits: 47964 48000 48010 (3 flits)
Measured flits: 47964 48000 48010 (3 flits)
Class 0:
Remaining flits: 47964 48000 48010 (3 flits)
Measured flits: 47964 48000 48010 (3 flits)
Class 0:
Remaining flits: 47964 48000 48010 (3 flits)
Measured flits: 47964 48000 48010 (3 flits)
Class 0:
Remaining flits: 47964 48000 48010 (3 flits)
Measured flits: 47964 48000 48010 (3 flits)
Class 0:
Remaining flits: 47964 48000 48010 (3 flits)
Measured flits: 47964 48000 48010 (3 flits)
Class 0:
Remaining flits: 47964 48000 48010 (3 flits)
Measured flits: 47964 48000 48010 (3 flits)
Class 0:
Remaining flits: 47964 48000 48010 (3 flits)
Measured flits: 47964 48000 48010 (3 flits)
Class 0:
Remaining flits: 47964 48000 48010 (3 flits)
Measured flits: 47964 48000 48010 (3 flits)
Class 0:
Remaining flits: 47964 48000 48010 (3 flits)
Measured flits: 47964 48000 48010 (3 flits)
Class 0:
Remaining flits: 47964 48000 48010 (3 flits)
Measured flits: 47964 48000 48010 (3 flits)
Class 0:
Remaining flits: 47964 48000 48010 (3 flits)
Measured flits: 47964 48000 48010 (3 flits)
Class 0:
Remaining flits: 47964 48000 48010 (3 flits)
Measured flits: 47964 48000 48010 (3 flits)
Class 0:
Remaining flits: 47964 48000 48010 (3 flits)
Measured flits: 47964 48000 48010 (3 flits)
Class 0:
Remaining flits: 47964 48000 48010 (3 flits)
Measured flits: 47964 48000 48010 (3 flits)
Class 0:
Remaining flits: 47964 48000 48010 (3 flits)
Measured flits: 47964 48000 48010 (3 flits)
Class 0:
Remaining flits: 47964 48000 48010 (3 flits)
Measured flits: 47964 48000 48010 (3 flits)
Class 0:
Remaining flits: 47964 48000 48010 (3 flits)
Measured flits: 47964 48000 48010 (3 flits)
Class 0:
Remaining flits: 47964 48000 48010 (3 flits)
Measured flits: 47964 48000 48010 (3 flits)
Class 0:
Remaining flits: 47964 48000 48010 (3 flits)
Measured flits: 47964 48000 48010 (3 flits)
Class 0:
Remaining flits: 47964 48000 48010 (3 flits)
Measured flits: 47964 48000 48010 (3 flits)
Class 0:
Remaining flits: 47964 48000 48010 (3 flits)
Measured flits: 47964 48000 48010 (3 flits)
Class 0:
Remaining flits: 47964 48000 48010 (3 flits)
Measured flits: 47964 48000 48010 (3 flits)
Class 0:
Remaining flits: 47964 48000 48010 (3 flits)
Measured flits: 47964 48000 48010 (3 flits)
Class 0:
Remaining flits: 47964 48000 48010 (3 flits)
Measured flits: 47964 48000 48010 (3 flits)
Class 0:
Remaining flits: 47964 48000 48010 (3 flits)
Measured flits: 47964 48000 48010 (3 flits)
Class 0:
Remaining flits: 47964 48000 48010 (3 flits)
Measured flits: 47964 48000 48010 (3 flits)
Class 0:
Remaining flits: 47964 48000 48010 (3 flits)
Measured flits: 47964 48000 48010 (3 flits)
Class 0:
Remaining flits: 47964 48000 48010 (3 flits)
Measured flits: 47964 48000 48010 (3 flits)
Class 0:
Remaining flits: 47964 48000 48010 (3 flits)
Measured flits: 47964 48000 48010 (3 flits)
Class 0:
Remaining flits: 47964 48000 48010 (3 flits)
Measured flits: 47964 48000 48010 (3 flits)
Class 0:
Remaining flits: 47964 48000 48010 (3 flits)
Measured flits: 47964 48000 48010 (3 flits)
Class 0:
Remaining flits: 47964 48000 48010 (3 flits)
Measured flits: 47964 48000 48010 (3 flits)
Class 0:
Remaining flits: 47964 48000 48010 (3 flits)
Measured flits: 47964 48000 48010 (3 flits)
Class 0:
Remaining flits: 47964 48000 48010 (3 flits)
Measured flits: 47964 48000 48010 (3 flits)
Class 0:
Remaining flits: 47964 48000 48010 (3 flits)
Measured flits: 47964 48000 48010 (3 flits)
Class 0:
Remaining flits: 47964 48000 48010 (3 flits)
Measured flits: 47964 48000 48010 (3 flits)
Class 0:
Remaining flits: 47964 48000 48010 (3 flits)
Measured flits: 47964 48000 48010 (3 flits)
Class 0:
Remaining flits: 47964 48000 48010 (3 flits)
Measured flits: 47964 48000 48010 (3 flits)
Class 0:
Remaining flits: 47964 48000 48010 (3 flits)
Measured flits: 47964 48000 48010 (3 flits)
Class 0:
Remaining flits: 47964 48000 48010 (3 flits)
Measured flits: 47964 48000 48010 (3 flits)
Class 0:
Remaining flits: 47964 48000 48010 (3 flits)
Measured flits: 47964 48000 48010 (3 flits)
Class 0:
Remaining flits: 47964 48000 48010 (3 flits)
Measured flits: 47964 48000 48010 (3 flits)
Class 0:
Remaining flits: 47964 48000 48010 (3 flits)
Measured flits: 47964 48000 48010 (3 flits)
Class 0:
Remaining flits: 47964 48000 48010 (3 flits)
Measured flits: 47964 48000 48010 (3 flits)
Class 0:
Remaining flits: 47964 48000 48010 (3 flits)
Measured flits: 47964 48000 48010 (3 flits)
Class 0:
Remaining flits: 47964 48000 48010 (3 flits)
Measured flits: 47964 48000 48010 (3 flits)
Class 0:
Remaining flits: 47964 48000 48010 (3 flits)
Measured flits: 47964 48000 48010 (3 flits)
Class 0:
Remaining flits: 47964 48000 48010 (3 flits)
Measured flits: 47964 48000 48010 (3 flits)
Class 0:
Remaining flits: 47964 48000 48010 (3 flits)
Measured flits: 47964 48000 48010 (3 flits)
Class 0:
Remaining flits: 47964 48000 48010 (3 flits)
Measured flits: 47964 48000 48010 (3 flits)
Class 0:
Remaining flits: 47964 48000 48010 (3 flits)
Measured flits: 47964 48000 48010 (3 flits)
Class 0:
Remaining flits: 47964 48000 48010 (3 flits)
Measured flits: 47964 48000 48010 (3 flits)
Class 0:
Remaining flits: 47964 48000 48010 (3 flits)
Measured flits: 47964 48000 48010 (3 flits)
Class 0:
Remaining flits: 47964 48000 48010 (3 flits)
Measured flits: 47964 48000 48010 (3 flits)
Class 0:
Remaining flits: 47964 48000 48010 (3 flits)
Measured flits: 47964 48000 48010 (3 flits)
Class 0:
Remaining flits: 47964 48000 48010 (3 flits)
Measured flits: 47964 48000 48010 (3 flits)
Class 0:
Remaining flits: 47964 48000 48010 (3 flits)
Measured flits: 47964 48000 48010 (3 flits)
Class 0:
Remaining flits: 47964 48000 48010 (3 flits)
Measured flits: 47964 48000 48010 (3 flits)
Time taken is 61000 cycles
====== Traffic class 0 ======

Total number of flits generated = 48037, changed lanes = 45707
Overall minimum packet latency = 7 (1 samples)
Overall average packet latency = 25.651 (1 samples)
Overall maximum packet latency = 417 (1 samples)
Overall minimum network latency = 8 (1 samples)
Overall average network latency = 26.6503 (1 samples)
Overall maximum network latency = 418 (1 samples)
Overall minimum flit latency = 8 (1 samples)
Overall average flit latency = 26.681 (1 samples)
Overall maximum flit latency = 418 (1 samples)
Overall minimum fragmentation = 0 (1 samples)
Overall average fragmentation = 0 (1 samples)
Overall maximum fragmentation = 0 (1 samples)
Overall minimum injected packet rate = 0.0482333 (1 samples)
Overall average injected packet rate = 0.0501896 (1 samples)
Overall maximum injected packet rate = 0.0529 (1 samples)
Overall minimum accepted packet rate = 0.0479333 (1 samples)
Overall average accepted packet rate = 0.0501938 (1 samples)
Overall maximum accepted packet rate = 0.0521 (1 samples)
Overall minimum injected flit rate = 0.0482333 (1 samples)
Overall average injected flit rate = 0.0501896 (1 samples)
Overall maximum injected flit rate = 0.0529 (1 samples)
Overall minimum accepted flit rate = 0.0479333 (1 samples)
Overall average accepted flit rate = 0.0501938 (1 samples)
Overall maximum accepted flit rate = 0.0521 (1 samples)
Overall average injected packet size = 1 (1 samples)
Overall average accepted packet size = 1 (1 samples)
Overall average hops = 2.99734 (1 samples)
Overall throughput of the network (flits/cycle) = 1.60113
Overall throughput of the network (packets/cycle) = 1.60113
Total run time 58.5949
