make: Nothing to be done for `all'.
Master: Running timer....
Master: Running SRC....
BEGIN Configuration File: ./examples/bitrev
// Topology

topology = mesh;
k = 4;
n = 2;

// Routing
routing_function = dor;

// Flow control
num_vcs     = 4;
vc_buf_size = 4;
wait_for_tail_credit = 0;

// Router architecture
vc_allocator = islip;
sw_allocator = islip;
alloc_iters  = 1;

credit_delay   = 1;
routing_delay  = 1;
vc_alloc_delay = 1;
sw_alloc_delay = 1;

input_speedup     = 1;
output_speedup    = 1;
internal_speedup  = 1.0;

vc_busy_when_full = 0;

// Traffic
traffic = uniform;
packet_size = 1;

// Simulation
sim_type = throughput;

injection_rate = 0.29;

END Configuration File: ./examples/bitrev
===== Time: 10000 =====
Class 0:
Minimum packet latency = 7
Average packet latency = 35.1529
Maximum packet latency = 135
Minimum network latency = 8
Average network latency = 36.1511
Maximum network latency = 136
Slowest packet = 24189
Minimum flit latency = 8
Average flit latency = 36.1511
Maximum flit latency = 136
Slowest flit = 24189
Minimum fragmentation = 0
Average fragmentation = 0
Maximum fragmentation = 0
Minimum injected packet rate = 0.281 (at node 4)
Average injected packet rate = 0.289025
Maximum injected packet rate = 0.2959 (at node 15)
Minimum accepted packet rate = 0.2726 (at node 4)
Average accepted packet rate = 0.287869
Maximum accepted packet rate = 0.2996 (at node 7)
Minimum injected flit rate = 0.281 (at node 4)
Average injected flit rate = 0.289025
Maximum injected flit rate = 0.2959 (at node 15)
Minimum accepted flit rate = 0.2726 (at node 4)
Average accepted flit rate = 0.287869
Maximum accepted flit rate = 0.2996 (at node 7)
Total number of injected packets = 46244
Total number of injected flits = 46244
Average injected packet length = 1
Total number of accepted packets = 46059
Total number of accepted flits = 46059
Average accepted packet length = 1
Total in-flight flits = 185 (0 measured)
===== Time: 20000 =====
Class 0:
Minimum packet latency = 7
Average packet latency = 34.7946
Maximum packet latency = 135
Minimum network latency = 8
Average network latency = 35.7937
Maximum network latency = 136
Slowest packet = 24189
Minimum flit latency = 8
Average flit latency = 35.7937
Maximum flit latency = 136
Slowest flit = 24189
Minimum fragmentation = 0
Average fragmentation = 0
Maximum fragmentation = 0
Minimum injected packet rate = 0.15255 (at node 0)
Average injected packet rate = 0.280366
Maximum injected packet rate = 0.2934 (at node 15)
Minimum accepted packet rate = 0.27365 (at node 13)
Average accepted packet rate = 0.279728
Maximum accepted packet rate = 0.28795 (at node 7)
Minimum injected flit rate = 0.15255 (at node 0)
Average injected flit rate = 0.280366
Maximum injected flit rate = 0.2934 (at node 15)
Minimum accepted flit rate = 0.27365 (at node 13)
Average accepted flit rate = 0.279728
Maximum accepted flit rate = 0.28795 (at node 7)
Total number of injected packets = 89717
Total number of injected flits = 89717
Average injected packet length = 1
Total number of accepted packets = 89513
Total number of accepted flits = 89513
Average accepted packet length = 1
Total in-flight flits = 205 (0 measured)
===== Time: 30000 =====
Class 0:
Minimum packet latency = 7
Average packet latency = 34.5907
Maximum packet latency = 115
Minimum network latency = 8
Average network latency = 35.5867
Maximum network latency = 116
Slowest packet = 124409
Minimum flit latency = 8
Average flit latency = 35.5867
Maximum flit latency = 116
Slowest flit = 124409
Minimum fragmentation = 0
Average fragmentation = 0
Maximum fragmentation = 0
Minimum injected packet rate = 0 (at node 0)
Average injected packet rate = 0.271756
Maximum injected packet rate = 0.3015 (at node 2)
Minimum accepted packet rate = 0.2649 (at node 8)
Average accepted packet rate = 0.272037
Maximum accepted packet rate = 0.2802 (at node 3)
Minimum injected flit rate = 0 (at node 0)
Average injected flit rate = 0.271756
Maximum injected flit rate = 0.3015 (at node 2)
Minimum accepted flit rate = 0.2649 (at node 8)
Average accepted flit rate = 0.272037
Maximum accepted flit rate = 0.2802 (at node 3)
Total number of injected packets = 43481
Total number of injected flits = 43481
Average injected packet length = 1
Total number of accepted packets = 43526
Total number of accepted flits = 43526
Average accepted packet length = 1
Total in-flight flits = 160 (0 measured)
===== Time: 40000 =====
Class 0:
Minimum packet latency = 7
Average packet latency = 34.6118
Maximum packet latency = 113
Minimum network latency = 8
Average network latency = 35.6118
Maximum network latency = 114
Slowest packet = 159803
Minimum flit latency = 8
Average flit latency = 35.6166
Maximum flit latency = 114
Slowest flit = 159803
Minimum fragmentation = 0
Average fragmentation = 0
Maximum fragmentation = 0
Minimum injected packet rate = 0 (at node 0)
Average injected packet rate = 0.272313
Maximum injected packet rate = 0.2996 (at node 13)
Minimum accepted packet rate = 0.2601 (at node 8)
Average accepted packet rate = 0.272125
Maximum accepted packet rate = 0.2841 (at node 5)
Minimum injected flit rate = 0 (at node 0)
Average injected flit rate = 0.272313
Maximum injected flit rate = 0.2996 (at node 13)
Minimum accepted flit rate = 0.2601 (at node 8)
Average accepted flit rate = 0.272125
Maximum accepted flit rate = 0.2841 (at node 5)
Total number of injected packets = 43570
Total number of injected flits = 43570
Average injected packet length = 1
Total number of accepted packets = 43540
Total number of accepted flits = 43540
Average accepted packet length = 1
Total in-flight flits = 190 (168 measured)
===== Time: 50000 =====
Class 0:
Minimum packet latency = 7
Average packet latency = 34.4185
Maximum packet latency = 120
Minimum network latency = 8
Average network latency = 35.4185
Maximum network latency = 121
Slowest packet = 206359
Minimum flit latency = 8
Average flit latency = 35.4213
Maximum flit latency = 121
Slowest flit = 206359
Minimum fragmentation = 0
Average fragmentation = 0
Maximum fragmentation = 0
Minimum injected packet rate = 0 (at node 0)
Average injected packet rate = 0.266931
Maximum injected packet rate = 0.2947 (at node 13)
Minimum accepted packet rate = 0.25545 (at node 8)
Average accepted packet rate = 0.266863
Maximum accepted packet rate = 0.2757 (at node 5)
Minimum injected flit rate = 0 (at node 0)
Average injected flit rate = 0.266931
Maximum injected flit rate = 0.2947 (at node 13)
Minimum accepted flit rate = 0.25545 (at node 8)
Average accepted flit rate = 0.266863
Maximum accepted flit rate = 0.2757 (at node 5)
Total number of injected packets = 85418
Total number of injected flits = 85418
Average injected packet length = 1
Total number of accepted packets = 85396
Total number of accepted flits = 85396
Average accepted packet length = 1
Total in-flight flits = 183 (161 measured)
===== Time: 60000 =====
Class 0:
Minimum packet latency = 7
Average packet latency = 34.5516
Maximum packet latency = 143
Minimum network latency = 8
Average network latency = 35.5516
Maximum network latency = 144
Slowest packet = 229949
Minimum flit latency = 8
Average flit latency = 35.5534
Maximum flit latency = 144
Slowest flit = 229949
Minimum fragmentation = 0
Average fragmentation = 0
Maximum fragmentation = 0
Minimum injected packet rate = 0 (at node 0)
Average injected packet rate = 0.26264
Maximum injected packet rate = 0.292967 (at node 7)
Minimum accepted packet rate = 0.2583 (at node 8)
Average accepted packet rate = 0.262573
Maximum accepted packet rate = 0.267133 (at node 5)
Minimum injected flit rate = 0 (at node 0)
Average injected flit rate = 0.26264
Maximum injected flit rate = 0.292967 (at node 7)
Minimum accepted flit rate = 0.2583 (at node 8)
Average accepted flit rate = 0.262573
Maximum accepted flit rate = 0.267133 (at node 5)
Total number of injected packets = 126067
Total number of injected flits = 126067
Average injected packet length = 1
Total number of accepted packets = 126035
Total number of accepted flits = 126035
Average accepted packet length = 1
Total in-flight flits = 193 (171 measured)
Draining remaining packets ...
Class 0:
Remaining flits: 48185 48202 48280 48285 48332 48336 48346 48347 48394 48411 [...] (162 flits)
Measured flits: 198663 198730 198751 198793 198831 198855 198875 198883 198900 198905 [...] (140 flits)
Class 0:
Remaining flits: 48185 48202 48280 48285 48332 48336 48346 48347 48394 48411 [...] (112 flits)
Measured flits: 198663 198730 198751 198793 198831 198855 198875 198883 198900 198905 [...] (90 flits)
Class 0:
Remaining flits: 48185 48202 48280 48285 48332 48336 48346 48347 48394 48411 [...] (85 flits)
Measured flits: 198663 198730 198751 198793 198831 198855 198875 198883 198900 198905 [...] (63 flits)
Class 0:
Remaining flits: 48185 48202 48280 48285 48332 48336 48346 48347 48394 48411 [...] (66 flits)
Measured flits: 198663 198730 198751 198793 198831 198855 198875 198883 198900 198905 [...] (44 flits)
Class 0:
Remaining flits: 48185 48202 48280 48285 48332 48336 48346 48347 48394 48411 [...] (51 flits)
Measured flits: 198663 198730 198751 198793 198831 198855 198875 198883 198900 198905 [...] (29 flits)
Class 0:
Remaining flits: 48185 48202 48280 48285 48332 48336 48346 48347 48394 48411 [...] (47 flits)
Measured flits: 198663 198730 198751 198793 198831 198855 198875 198883 198900 198905 [...] (25 flits)
Class 0:
Remaining flits: 48185 48202 48280 48285 48332 48336 48346 48347 48394 48411 [...] (46 flits)
Measured flits: 198663 198730 198751 198793 198831 198855 198875 198883 198900 198905 [...] (24 flits)
Class 0:
Remaining flits: 48185 48202 48280 48285 48332 48336 48346 48347 48394 48411 [...] (46 flits)
Measured flits: 198663 198730 198751 198793 198831 198855 198875 198883 198900 198905 [...] (24 flits)
Class 0:
Remaining flits: 48185 48202 48280 48285 48332 48336 48346 48347 48394 48411 [...] (46 flits)
Measured flits: 198663 198730 198751 198793 198831 198855 198875 198883 198900 198905 [...] (24 flits)
Class 0:
Remaining flits: 48185 48202 48280 48285 48332 48336 48346 48347 48394 48411 [...] (46 flits)
Measured flits: 198663 198730 198751 198793 198831 198855 198875 198883 198900 198905 [...] (24 flits)
Class 0:
Remaining flits: 48185 48202 48280 48285 48332 48336 48346 48347 48394 48411 [...] (46 flits)
Measured flits: 198663 198730 198751 198793 198831 198855 198875 198883 198900 198905 [...] (24 flits)
Class 0:
Remaining flits: 48185 48202 48280 48285 48332 48336 48346 48347 48394 48411 [...] (46 flits)
Measured flits: 198663 198730 198751 198793 198831 198855 198875 198883 198900 198905 [...] (24 flits)
Class 0:
Remaining flits: 48185 48202 48280 48285 48332 48336 48346 48347 48394 48411 [...] (46 flits)
Measured flits: 198663 198730 198751 198793 198831 198855 198875 198883 198900 198905 [...] (24 flits)
Class 0:
Remaining flits: 48185 48202 48280 48285 48332 48336 48346 48347 48394 48411 [...] (46 flits)
Measured flits: 198663 198730 198751 198793 198831 198855 198875 198883 198900 198905 [...] (24 flits)
Class 0:
Remaining flits: 48185 48202 48280 48285 48332 48336 48346 48347 48394 48411 [...] (46 flits)
Measured flits: 198663 198730 198751 198793 198831 198855 198875 198883 198900 198905 [...] (24 flits)
Class 0:
Remaining flits: 48185 48202 48280 48285 48332 48336 48346 48347 48394 48411 [...] (46 flits)
Measured flits: 198663 198730 198751 198793 198831 198855 198875 198883 198900 198905 [...] (24 flits)
Class 0:
Remaining flits: 48185 48202 48280 48285 48332 48336 48346 48347 48394 48411 [...] (46 flits)
Measured flits: 198663 198730 198751 198793 198831 198855 198875 198883 198900 198905 [...] (24 flits)
Class 0:
Remaining flits: 48185 48202 48280 48285 48332 48336 48346 48347 48394 48411 [...] (46 flits)
Measured flits: 198663 198730 198751 198793 198831 198855 198875 198883 198900 198905 [...] (24 flits)
Class 0:
Remaining flits: 48185 48202 48280 48285 48332 48336 48346 48347 48394 48411 [...] (46 flits)
Measured flits: 198663 198730 198751 198793 198831 198855 198875 198883 198900 198905 [...] (24 flits)
Class 0:
Remaining flits: 48185 48202 48280 48285 48332 48336 48346 48347 48394 48411 [...] (46 flits)
Measured flits: 198663 198730 198751 198793 198831 198855 198875 198883 198900 198905 [...] (24 flits)
Class 0:
Remaining flits: 48185 48202 48280 48285 48332 48336 48346 48347 48394 48411 [...] (46 flits)
Measured flits: 198663 198730 198751 198793 198831 198855 198875 198883 198900 198905 [...] (24 flits)
Class 0:
Remaining flits: 48185 48202 48280 48285 48332 48336 48346 48347 48394 48411 [...] (46 flits)
Measured flits: 198663 198730 198751 198793 198831 198855 198875 198883 198900 198905 [...] (24 flits)
Class 0:
Remaining flits: 48185 48202 48280 48285 48332 48336 48346 48347 48394 48411 [...] (46 flits)
Measured flits: 198663 198730 198751 198793 198831 198855 198875 198883 198900 198905 [...] (24 flits)
Class 0:
Remaining flits: 48185 48202 48280 48285 48332 48336 48346 48347 48394 48411 [...] (46 flits)
Measured flits: 198663 198730 198751 198793 198831 198855 198875 198883 198900 198905 [...] (24 flits)
Class 0:
Remaining flits: 48185 48202 48280 48285 48332 48336 48346 48347 48394 48411 [...] (46 flits)
Measured flits: 198663 198730 198751 198793 198831 198855 198875 198883 198900 198905 [...] (24 flits)
Class 0:
Remaining flits: 48185 48202 48280 48285 48332 48336 48346 48347 48394 48411 [...] (46 flits)
Measured flits: 198663 198730 198751 198793 198831 198855 198875 198883 198900 198905 [...] (24 flits)
Class 0:
Remaining flits: 48185 48202 48280 48285 48332 48336 48346 48347 48394 48411 [...] (46 flits)
Measured flits: 198663 198730 198751 198793 198831 198855 198875 198883 198900 198905 [...] (24 flits)
Class 0:
Remaining flits: 48185 48202 48280 48285 48332 48336 48346 48347 48394 48411 [...] (46 flits)
Measured flits: 198663 198730 198751 198793 198831 198855 198875 198883 198900 198905 [...] (24 flits)
Class 0:
Remaining flits: 48185 48202 48280 48285 48332 48336 48346 48347 48394 48411 [...] (46 flits)
Measured flits: 198663 198730 198751 198793 198831 198855 198875 198883 198900 198905 [...] (24 flits)
Class 0:
Remaining flits: 48185 48202 48280 48285 48332 48336 48346 48347 48394 48411 [...] (46 flits)
Measured flits: 198663 198730 198751 198793 198831 198855 198875 198883 198900 198905 [...] (24 flits)
Class 0:
Remaining flits: 48185 48202 48280 48285 48332 48336 48346 48347 48394 48411 [...] (46 flits)
Measured flits: 198663 198730 198751 198793 198831 198855 198875 198883 198900 198905 [...] (24 flits)
Class 0:
Remaining flits: 48185 48202 48280 48285 48332 48336 48346 48347 48394 48411 [...] (46 flits)
Measured flits: 198663 198730 198751 198793 198831 198855 198875 198883 198900 198905 [...] (24 flits)
Class 0:
Remaining flits: 48185 48202 48280 48285 48332 48336 48346 48347 48394 48411 [...] (46 flits)
Measured flits: 198663 198730 198751 198793 198831 198855 198875 198883 198900 198905 [...] (24 flits)
Class 0:
Remaining flits: 48185 48202 48280 48285 48332 48336 48346 48347 48394 48411 [...] (46 flits)
Measured flits: 198663 198730 198751 198793 198831 198855 198875 198883 198900 198905 [...] (24 flits)
Class 0:
Remaining flits: 48185 48202 48280 48285 48332 48336 48346 48347 48394 48411 [...] (46 flits)
Measured flits: 198663 198730 198751 198793 198831 198855 198875 198883 198900 198905 [...] (24 flits)
Class 0:
Remaining flits: 48185 48202 48280 48285 48332 48336 48346 48347 48394 48411 [...] (46 flits)
Measured flits: 198663 198730 198751 198793 198831 198855 198875 198883 198900 198905 [...] (24 flits)
Class 0:
Remaining flits: 48185 48202 48280 48285 48332 48336 48346 48347 48394 48411 [...] (46 flits)
Measured flits: 198663 198730 198751 198793 198831 198855 198875 198883 198900 198905 [...] (24 flits)
Class 0:
Remaining flits: 48185 48202 48280 48285 48332 48336 48346 48347 48394 48411 [...] (46 flits)
Measured flits: 198663 198730 198751 198793 198831 198855 198875 198883 198900 198905 [...] (24 flits)
Class 0:
Remaining flits: 48185 48202 48280 48285 48332 48336 48346 48347 48394 48411 [...] (46 flits)
Measured flits: 198663 198730 198751 198793 198831 198855 198875 198883 198900 198905 [...] (24 flits)
Class 0:
Remaining flits: 48185 48202 48280 48285 48332 48336 48346 48347 48394 48411 [...] (46 flits)
Measured flits: 198663 198730 198751 198793 198831 198855 198875 198883 198900 198905 [...] (24 flits)
Class 0:
Remaining flits: 48185 48202 48280 48285 48332 48336 48346 48347 48394 48411 [...] (46 flits)
Measured flits: 198663 198730 198751 198793 198831 198855 198875 198883 198900 198905 [...] (24 flits)
Class 0:
Remaining flits: 48185 48202 48280 48285 48332 48336 48346 48347 48394 48411 [...] (46 flits)
Measured flits: 198663 198730 198751 198793 198831 198855 198875 198883 198900 198905 [...] (24 flits)
Class 0:
Remaining flits: 48185 48202 48280 48285 48332 48336 48346 48347 48394 48411 [...] (46 flits)
Measured flits: 198663 198730 198751 198793 198831 198855 198875 198883 198900 198905 [...] (24 flits)
Class 0:
Remaining flits: 48185 48202 48280 48285 48332 48336 48346 48347 48394 48411 [...] (46 flits)
Measured flits: 198663 198730 198751 198793 198831 198855 198875 198883 198900 198905 [...] (24 flits)
Class 0:
Remaining flits: 48185 48202 48280 48285 48332 48336 48346 48347 48394 48411 [...] (46 flits)
Measured flits: 198663 198730 198751 198793 198831 198855 198875 198883 198900 198905 [...] (24 flits)
Class 0:
Remaining flits: 48185 48202 48280 48285 48332 48336 48346 48347 48394 48411 [...] (46 flits)
Measured flits: 198663 198730 198751 198793 198831 198855 198875 198883 198900 198905 [...] (24 flits)
Class 0:
Remaining flits: 48185 48202 48280 48285 48332 48336 48346 48347 48394 48411 [...] (46 flits)
Measured flits: 198663 198730 198751 198793 198831 198855 198875 198883 198900 198905 [...] (24 flits)
Class 0:
Remaining flits: 48185 48202 48280 48285 48332 48336 48346 48347 48394 48411 [...] (46 flits)
Measured flits: 198663 198730 198751 198793 198831 198855 198875 198883 198900 198905 [...] (24 flits)
Class 0:
Remaining flits: 48185 48202 48280 48285 48332 48336 48346 48347 48394 48411 [...] (46 flits)
Measured flits: 198663 198730 198751 198793 198831 198855 198875 198883 198900 198905 [...] (24 flits)
Class 0:
Remaining flits: 48185 48202 48280 48285 48332 48336 48346 48347 48394 48411 [...] (46 flits)
Measured flits: 198663 198730 198751 198793 198831 198855 198875 198883 198900 198905 [...] (24 flits)
Class 0:
Remaining flits: 48185 48202 48280 48285 48332 48336 48346 48347 48394 48411 [...] (46 flits)
Measured flits: 198663 198730 198751 198793 198831 198855 198875 198883 198900 198905 [...] (24 flits)
Class 0:
Remaining flits: 48185 48202 48280 48285 48332 48336 48346 48347 48394 48411 [...] (46 flits)
Measured flits: 198663 198730 198751 198793 198831 198855 198875 198883 198900 198905 [...] (24 flits)
Class 0:
Remaining flits: 48185 48202 48280 48285 48332 48336 48346 48347 48394 48411 [...] (46 flits)
Measured flits: 198663 198730 198751 198793 198831 198855 198875 198883 198900 198905 [...] (24 flits)
Class 0:
Remaining flits: 48185 48202 48280 48285 48332 48336 48346 48347 48394 48411 [...] (46 flits)
Measured flits: 198663 198730 198751 198793 198831 198855 198875 198883 198900 198905 [...] (24 flits)
Class 0:
Remaining flits: 48185 48202 48280 48285 48332 48336 48346 48347 48394 48411 [...] (46 flits)
Measured flits: 198663 198730 198751 198793 198831 198855 198875 198883 198900 198905 [...] (24 flits)
Class 0:
Remaining flits: 48185 48202 48280 48285 48332 48336 48346 48347 48394 48411 [...] (46 flits)
Measured flits: 198663 198730 198751 198793 198831 198855 198875 198883 198900 198905 [...] (24 flits)
Class 0:
Remaining flits: 48185 48202 48280 48285 48332 48336 48346 48347 48394 48411 [...] (46 flits)
Measured flits: 198663 198730 198751 198793 198831 198855 198875 198883 198900 198905 [...] (24 flits)
Class 0:
Remaining flits: 48185 48202 48280 48285 48332 48336 48346 48347 48394 48411 [...] (46 flits)
Measured flits: 198663 198730 198751 198793 198831 198855 198875 198883 198900 198905 [...] (24 flits)
Class 0:
Remaining flits: 48185 48202 48280 48285 48332 48336 48346 48347 48394 48411 [...] (46 flits)
Measured flits: 198663 198730 198751 198793 198831 198855 198875 198883 198900 198905 [...] (24 flits)
Class 0:
Remaining flits: 48185 48202 48280 48285 48332 48336 48346 48347 48394 48411 [...] (46 flits)
Measured flits: 198663 198730 198751 198793 198831 198855 198875 198883 198900 198905 [...] (24 flits)
Class 0:
Remaining flits: 48185 48202 48280 48285 48332 48336 48346 48347 48394 48411 [...] (46 flits)
Measured flits: 198663 198730 198751 198793 198831 198855 198875 198883 198900 198905 [...] (24 flits)
Class 0:
Remaining flits: 48185 48202 48280 48285 48332 48336 48346 48347 48394 48411 [...] (46 flits)
Measured flits: 198663 198730 198751 198793 198831 198855 198875 198883 198900 198905 [...] (24 flits)
Class 0:
Remaining flits: 48185 48202 48280 48285 48332 48336 48346 48347 48394 48411 [...] (46 flits)
Measured flits: 198663 198730 198751 198793 198831 198855 198875 198883 198900 198905 [...] (24 flits)
Class 0:
Remaining flits: 48185 48202 48280 48285 48332 48336 48346 48347 48394 48411 [...] (46 flits)
Measured flits: 198663 198730 198751 198793 198831 198855 198875 198883 198900 198905 [...] (24 flits)
Class 0:
Remaining flits: 48185 48202 48280 48285 48332 48336 48346 48347 48394 48411 [...] (46 flits)
Measured flits: 198663 198730 198751 198793 198831 198855 198875 198883 198900 198905 [...] (24 flits)
Class 0:
Remaining flits: 48185 48202 48280 48285 48332 48336 48346 48347 48394 48411 [...] (46 flits)
Measured flits: 198663 198730 198751 198793 198831 198855 198875 198883 198900 198905 [...] (24 flits)
Class 0:
Remaining flits: 48185 48202 48280 48285 48332 48336 48346 48347 48394 48411 [...] (46 flits)
Measured flits: 198663 198730 198751 198793 198831 198855 198875 198883 198900 198905 [...] (24 flits)
Class 0:
Remaining flits: 48185 48202 48280 48285 48332 48336 48346 48347 48394 48411 [...] (46 flits)
Measured flits: 198663 198730 198751 198793 198831 198855 198875 198883 198900 198905 [...] (24 flits)
Class 0:
Remaining flits: 48185 48202 48280 48285 48332 48336 48346 48347 48394 48411 [...] (46 flits)
Measured flits: 198663 198730 198751 198793 198831 198855 198875 198883 198900 198905 [...] (24 flits)
Class 0:
Remaining flits: 48185 48202 48280 48285 48332 48336 48346 48347 48394 48411 [...] (46 flits)
Measured flits: 198663 198730 198751 198793 198831 198855 198875 198883 198900 198905 [...] (24 flits)
Class 0:
Remaining flits: 48185 48202 48280 48285 48332 48336 48346 48347 48394 48411 [...] (46 flits)
Measured flits: 198663 198730 198751 198793 198831 198855 198875 198883 198900 198905 [...] (24 flits)
Class 0:
Remaining flits: 48185 48202 48280 48285 48332 48336 48346 48347 48394 48411 [...] (46 flits)
Measured flits: 198663 198730 198751 198793 198831 198855 198875 198883 198900 198905 [...] (24 flits)
Class 0:
Remaining flits: 48185 48202 48280 48285 48332 48336 48346 48347 48394 48411 [...] (46 flits)
Measured flits: 198663 198730 198751 198793 198831 198855 198875 198883 198900 198905 [...] (24 flits)
Class 0:
Remaining flits: 48185 48202 48280 48285 48332 48336 48346 48347 48394 48411 [...] (46 flits)
Measured flits: 198663 198730 198751 198793 198831 198855 198875 198883 198900 198905 [...] (24 flits)
Class 0:
Remaining flits: 48185 48202 48280 48285 48332 48336 48346 48347 48394 48411 [...] (46 flits)
Measured flits: 198663 198730 198751 198793 198831 198855 198875 198883 198900 198905 [...] (24 flits)
Class 0:
Remaining flits: 48185 48202 48280 48285 48332 48336 48346 48347 48394 48411 [...] (46 flits)
Measured flits: 198663 198730 198751 198793 198831 198855 198875 198883 198900 198905 [...] (24 flits)
Class 0:
Remaining flits: 48185 48202 48280 48285 48332 48336 48346 48347 48394 48411 [...] (46 flits)
Measured flits: 198663 198730 198751 198793 198831 198855 198875 198883 198900 198905 [...] (24 flits)
Class 0:
Remaining flits: 48185 48202 48280 48285 48332 48336 48346 48347 48394 48411 [...] (46 flits)
Measured flits: 198663 198730 198751 198793 198831 198855 198875 198883 198900 198905 [...] (24 flits)
Class 0:
Remaining flits: 48185 48202 48280 48285 48332 48336 48346 48347 48394 48411 [...] (46 flits)
Measured flits: 198663 198730 198751 198793 198831 198855 198875 198883 198900 198905 [...] (24 flits)
Class 0:
Remaining flits: 48185 48202 48280 48285 48332 48336 48346 48347 48394 48411 [...] (46 flits)
Measured flits: 198663 198730 198751 198793 198831 198855 198875 198883 198900 198905 [...] (24 flits)
Class 0:
Remaining flits: 48185 48202 48280 48285 48332 48336 48346 48347 48394 48411 [...] (46 flits)
Measured flits: 198663 198730 198751 198793 198831 198855 198875 198883 198900 198905 [...] (24 flits)
Class 0:
Remaining flits: 48185 48202 48280 48285 48332 48336 48346 48347 48394 48411 [...] (46 flits)
Measured flits: 198663 198730 198751 198793 198831 198855 198875 198883 198900 198905 [...] (24 flits)
Class 0:
Remaining flits: 48185 48202 48280 48285 48332 48336 48346 48347 48394 48411 [...] (46 flits)
Measured flits: 198663 198730 198751 198793 198831 198855 198875 198883 198900 198905 [...] (24 flits)
Class 0:
Remaining flits: 48185 48202 48280 48285 48332 48336 48346 48347 48394 48411 [...] (46 flits)
Measured flits: 198663 198730 198751 198793 198831 198855 198875 198883 198900 198905 [...] (24 flits)
Class 0:
Remaining flits: 48185 48202 48280 48285 48332 48336 48346 48347 48394 48411 [...] (46 flits)
Measured flits: 198663 198730 198751 198793 198831 198855 198875 198883 198900 198905 [...] (24 flits)
Class 0:
Remaining flits: 48185 48202 48280 48285 48332 48336 48346 48347 48394 48411 [...] (46 flits)
Measured flits: 198663 198730 198751 198793 198831 198855 198875 198883 198900 198905 [...] (24 flits)
Class 0:
Remaining flits: 48185 48202 48280 48285 48332 48336 48346 48347 48394 48411 [...] (46 flits)
Measured flits: 198663 198730 198751 198793 198831 198855 198875 198883 198900 198905 [...] (24 flits)
Class 0:
Remaining flits: 48185 48202 48280 48285 48332 48336 48346 48347 48394 48411 [...] (46 flits)
Measured flits: 198663 198730 198751 198793 198831 198855 198875 198883 198900 198905 [...] (24 flits)
Class 0:
Remaining flits: 48185 48202 48280 48285 48332 48336 48346 48347 48394 48411 [...] (46 flits)
Measured flits: 198663 198730 198751 198793 198831 198855 198875 198883 198900 198905 [...] (24 flits)
Class 0:
Remaining flits: 48185 48202 48280 48285 48332 48336 48346 48347 48394 48411 [...] (46 flits)
Measured flits: 198663 198730 198751 198793 198831 198855 198875 198883 198900 198905 [...] (24 flits)
Class 0:
Remaining flits: 48185 48202 48280 48285 48332 48336 48346 48347 48394 48411 [...] (46 flits)
Measured flits: 198663 198730 198751 198793 198831 198855 198875 198883 198900 198905 [...] (24 flits)
Class 0:
Remaining flits: 48185 48202 48280 48285 48332 48336 48346 48347 48394 48411 [...] (46 flits)
Measured flits: 198663 198730 198751 198793 198831 198855 198875 198883 198900 198905 [...] (24 flits)
Class 0:
Remaining flits: 48185 48202 48280 48285 48332 48336 48346 48347 48394 48411 [...] (46 flits)
Measured flits: 198663 198730 198751 198793 198831 198855 198875 198883 198900 198905 [...] (24 flits)
Class 0:
Remaining flits: 48185 48202 48280 48285 48332 48336 48346 48347 48394 48411 [...] (46 flits)
Measured flits: 198663 198730 198751 198793 198831 198855 198875 198883 198900 198905 [...] (24 flits)
Class 0:
Remaining flits: 48185 48202 48280 48285 48332 48336 48346 48347 48394 48411 [...] (46 flits)
Measured flits: 198663 198730 198751 198793 198831 198855 198875 198883 198900 198905 [...] (24 flits)
Class 0:
Remaining flits: 48185 48202 48280 48285 48332 48336 48346 48347 48394 48411 [...] (46 flits)
Measured flits: 198663 198730 198751 198793 198831 198855 198875 198883 198900 198905 [...] (24 flits)
Class 0:
Remaining flits: 48185 48202 48280 48285 48332 48336 48346 48347 48394 48411 [...] (46 flits)
Measured flits: 198663 198730 198751 198793 198831 198855 198875 198883 198900 198905 [...] (24 flits)
Class 0:
Remaining flits: 48185 48202 48280 48285 48332 48336 48346 48347 48394 48411 [...] (46 flits)
Measured flits: 198663 198730 198751 198793 198831 198855 198875 198883 198900 198905 [...] (24 flits)
Class 0:
Remaining flits: 48185 48202 48280 48285 48332 48336 48346 48347 48394 48411 [...] (46 flits)
Measured flits: 198663 198730 198751 198793 198831 198855 198875 198883 198900 198905 [...] (24 flits)
Class 0:
Remaining flits: 48185 48202 48280 48285 48332 48336 48346 48347 48394 48411 [...] (46 flits)
Measured flits: 198663 198730 198751 198793 198831 198855 198875 198883 198900 198905 [...] (24 flits)
Class 0:
Remaining flits: 48185 48202 48280 48285 48332 48336 48346 48347 48394 48411 [...] (46 flits)
Measured flits: 198663 198730 198751 198793 198831 198855 198875 198883 198900 198905 [...] (24 flits)
Time taken is 61000 cycles
====== Traffic class 0 ======

Total number of flits generated = 259267, changed lanes = 250660
Overall minimum packet latency = 7 (1 samples)
Overall average packet latency = 34.5587 (1 samples)
Overall maximum packet latency = 143 (1 samples)
Overall minimum network latency = 8 (1 samples)
Overall average network latency = 35.5587 (1 samples)
Overall maximum network latency = 144 (1 samples)
Overall minimum flit latency = 8 (1 samples)
Overall average flit latency = 35.5604 (1 samples)
Overall maximum flit latency = 144 (1 samples)
Overall minimum fragmentation = 0 (1 samples)
Overall average fragmentation = 0 (1 samples)
Overall maximum fragmentation = 0 (1 samples)
Overall minimum injected packet rate = 0 (1 samples)
Overall average injected packet rate = 0.26264 (1 samples)
Overall maximum injected packet rate = 0.292967 (1 samples)
Overall minimum accepted packet rate = 0.2583 (1 samples)
Overall average accepted packet rate = 0.262573 (1 samples)
Overall maximum accepted packet rate = 0.267133 (1 samples)
Overall minimum injected flit rate = 0 (1 samples)
Overall average injected flit rate = 0.26264 (1 samples)
Overall maximum injected flit rate = 0.292967 (1 samples)
Overall minimum accepted flit rate = 0.2583 (1 samples)
Overall average accepted flit rate = 0.262573 (1 samples)
Overall maximum accepted flit rate = 0.267133 (1 samples)
Overall average injected packet size = 1 (1 samples)
Overall average accepted packet size = 1 (1 samples)
Overall average hops = 3.46596 (1 samples)
Overall throughput of the network (flits/cycle) = 8.6407
Overall throughput of the network (packets/cycle) = 8.6407
Total run time 55753.9
