make: Nothing to be done for `all'.
Master: Running timer....
Master: Running SRC....
BEGIN Configuration File: ./examples/bitrev
// Topology

topology = mesh;
k = 4;
n = 2;

// Routing
routing_function = dor;

// Flow control
num_vcs     = 4;
vc_buf_size = 4;
wait_for_tail_credit = 0;

// Router architecture
vc_allocator = islip;
sw_allocator = islip;
alloc_iters  = 1;

credit_delay   = 1;
routing_delay  = 1;
vc_alloc_delay = 1;
sw_alloc_delay = 1;

input_speedup     = 1;
output_speedup    = 1;
internal_speedup  = 1.0;

vc_busy_when_full = 0;

// Traffic
traffic = uniform;
packet_size = 1;

// Simulation
sim_type = throughput;

injection_rate = 0.35;

END Configuration File: ./examples/bitrev
===== Time: 1000 =====
Class 0:
Minimum packet latency = 7
Average packet latency = 48.5834
Maximum packet latency = 175
Minimum network latency = 8
Average network latency = 48.973
Maximum network latency = 176
Slowest packet = 4178
Minimum flit latency = 8
Average flit latency = 48.973
Maximum flit latency = 176
Slowest flit = 4178
Minimum fragmentation = 0
Average fragmentation = 0
Maximum fragmentation = 0
Minimum injected packet rate = 0.319 (at node 12)
Average injected packet rate = 0.347187
Maximum injected packet rate = 0.375 (at node 15)
Minimum accepted packet rate = 0.298 (at node 14)
Average accepted packet rate = 0.326937
Maximum accepted packet rate = 0.351 (at node 8)
Minimum injected flit rate = 0.319 (at node 12)
Average injected flit rate = 0.347187
Maximum injected flit rate = 0.375 (at node 15)
Minimum accepted flit rate = 0.298 (at node 14)
Average accepted flit rate = 0.326937
Maximum accepted flit rate = 0.351 (at node 8)
Total number of injected packets = 5555
Total number of injected flits = 5555
Average injected packet length = 1
Total number of accepted packets = 5231
Total number of accepted flits = 5231
Average accepted packet length = 1
Total in-flight flits = 325 (0 measured)
===== Time: 2000 =====
Class 0:
Minimum packet latency = 7
Average packet latency = 52.2745
Maximum packet latency = 175
Minimum network latency = 8
Average network latency = 52.4053
Maximum network latency = 176
Slowest packet = 4178
Minimum flit latency = 8
Average flit latency = 52.4053
Maximum flit latency = 176
Slowest flit = 4178
Minimum fragmentation = 0
Average fragmentation = 0
Maximum fragmentation = 0
Minimum injected packet rate = 0.3255 (at node 12)
Average injected packet rate = 0.345594
Maximum injected packet rate = 0.3625 (at node 15)
Minimum accepted packet rate = 0.3 (at node 4)
Average accepted packet rate = 0.335781
Maximum accepted packet rate = 0.358 (at node 7)
Minimum injected flit rate = 0.3255 (at node 12)
Average injected flit rate = 0.345594
Maximum injected flit rate = 0.3625 (at node 15)
Minimum accepted flit rate = 0.3 (at node 4)
Average accepted flit rate = 0.335781
Maximum accepted flit rate = 0.358 (at node 7)
Total number of injected packets = 11059
Total number of injected flits = 11059
Average injected packet length = 1
Total number of accepted packets = 10745
Total number of accepted flits = 10745
Average accepted packet length = 1
Total in-flight flits = 314 (0 measured)
===== Time: 3000 =====
Class 0:
Minimum packet latency = 7
Average packet latency = 72.4464
Maximum packet latency = 265
Minimum network latency = 8
Average network latency = 64.9667
Maximum network latency = 198
Slowest packet = 10637
Minimum flit latency = 8
Average flit latency = 64.9667
Maximum flit latency = 198
Slowest flit = 10637
Minimum fragmentation = 0
Average fragmentation = 0
Maximum fragmentation = 0
Minimum injected packet rate = 0.17 (at node 11)
Average injected packet rate = 0.3355
Maximum injected packet rate = 0.363 (at node 3)
Minimum accepted packet rate = 0.301 (at node 13)
Average accepted packet rate = 0.331937
Maximum accepted packet rate = 0.366 (at node 9)
Minimum injected flit rate = 0.17 (at node 11)
Average injected flit rate = 0.3355
Maximum injected flit rate = 0.363 (at node 3)
Minimum accepted flit rate = 0.301 (at node 13)
Average accepted flit rate = 0.331937
Maximum accepted flit rate = 0.366 (at node 9)
Total number of injected packets = 5368
Total number of injected flits = 5368
Average injected packet length = 1
Total number of accepted packets = 5311
Total number of accepted flits = 5311
Average accepted packet length = 1
Total in-flight flits = 376 (0 measured)
===== Time: 4000 =====
Class 0:
Minimum packet latency = 7
Average packet latency = 66.1573
Maximum packet latency = 205
Minimum network latency = 8
Average network latency = 57.9823
Maximum network latency = 168
Slowest packet = 16436
Minimum flit latency = 8
Average flit latency = 59.3095
Maximum flit latency = 173
Slowest flit = 16027
Minimum fragmentation = 0
Average fragmentation = 0
Maximum fragmentation = 0
Minimum injected packet rate = 0 (at node 11)
Average injected packet rate = 0.328813
Maximum injected packet rate = 0.37 (at node 14)
Minimum accepted packet rate = 0.307 (at node 13)
Average accepted packet rate = 0.333625
Maximum accepted packet rate = 0.353 (at node 5)
Minimum injected flit rate = 0 (at node 11)
Average injected flit rate = 0.328813
Maximum injected flit rate = 0.37 (at node 14)
Minimum accepted flit rate = 0.307 (at node 13)
Average accepted flit rate = 0.333625
Maximum accepted flit rate = 0.353 (at node 5)
Total number of injected packets = 5261
Total number of injected flits = 5261
Average injected packet length = 1
Total number of accepted packets = 5338
Total number of accepted flits = 5338
Average accepted packet length = 1
Total in-flight flits = 297 (275 measured)
===== Time: 5000 =====
Class 0:
Minimum packet latency = 7
Average packet latency = 59.7534
Maximum packet latency = 205
Minimum network latency = 8
Average network latency = 53.2419
Maximum network latency = 168
Slowest packet = 16436
Minimum flit latency = 8
Average flit latency = 54.0695
Maximum flit latency = 173
Slowest flit = 16027
Minimum fragmentation = 0
Average fragmentation = 0
Maximum fragmentation = 0
Minimum injected packet rate = 0 (at node 11)
Average injected packet rate = 0.327375
Maximum injected packet rate = 0.368 (at node 14)
Minimum accepted packet rate = 0.2995 (at node 4)
Average accepted packet rate = 0.330844
Maximum accepted packet rate = 0.3435 (at node 7)
Minimum injected flit rate = 0 (at node 11)
Average injected flit rate = 0.327375
Maximum injected flit rate = 0.368 (at node 14)
Minimum accepted flit rate = 0.2995 (at node 4)
Average accepted flit rate = 0.330844
Maximum accepted flit rate = 0.3435 (at node 7)
Total number of injected packets = 10476
Total number of injected flits = 10476
Average injected packet length = 1
Total number of accepted packets = 10587
Total number of accepted flits = 10587
Average accepted packet length = 1
Total in-flight flits = 262 (240 measured)
===== Time: 6000 =====
Class 0:
Minimum packet latency = 7
Average packet latency = 59.7477
Maximum packet latency = 205
Minimum network latency = 8
Average network latency = 53.808
Maximum network latency = 168
Slowest packet = 16436
Minimum flit latency = 8
Average flit latency = 54.3505
Maximum flit latency = 173
Slowest flit = 16027
Minimum fragmentation = 0
Average fragmentation = 0
Maximum fragmentation = 0
Minimum injected packet rate = 0 (at node 11)
Average injected packet rate = 0.327479
Maximum injected packet rate = 0.358667 (at node 8)
Minimum accepted packet rate = 0.299 (at node 4)
Average accepted packet rate = 0.328771
Maximum accepted packet rate = 0.338667 (at node 10)
Minimum injected flit rate = 0 (at node 11)
Average injected flit rate = 0.327479
Maximum injected flit rate = 0.358667 (at node 8)
Minimum accepted flit rate = 0.299 (at node 4)
Average accepted flit rate = 0.328771
Maximum accepted flit rate = 0.338667 (at node 10)
Total number of injected packets = 15719
Total number of injected flits = 15719
Average injected packet length = 1
Total number of accepted packets = 15781
Total number of accepted flits = 15781
Average accepted packet length = 1
Total in-flight flits = 313 (291 measured)
Draining remaining packets ...
Class 0:
Remaining flits: 13437 13525 13554 13591 13636 13648 13668 13677 13700 13717 [...] (260 flits)
Measured flits: 31525 31557 31581 31607 31616 31623 31640 31651 31660 31682 [...] (238 flits)
Class 0:
Remaining flits: 13437 13525 13554 13591 13636 13648 13668 13677 13700 13717 [...] (209 flits)
Measured flits: 31623 31640 31651 31660 31719 31720 31745 31760 31777 31804 [...] (187 flits)
Class 0:
Remaining flits: 13437 13525 13554 13591 13636 13648 13668 13677 13700 13717 [...] (169 flits)
Measured flits: 31623 31719 31720 31760 31777 31804 31808 31828 31840 31841 [...] (147 flits)
Class 0:
Remaining flits: 13437 13525 13554 13591 13636 13648 13668 13677 13700 13717 [...] (130 flits)
Measured flits: 31719 31720 31760 31777 31804 31808 31841 31861 31862 31869 [...] (108 flits)
Class 0:
Remaining flits: 13437 13525 13554 13591 13636 13648 13668 13677 13700 13717 [...] (100 flits)
Measured flits: 31777 31804 31808 31841 31862 31884 31930 31931 31953 31974 [...] (78 flits)
Class 0:
Remaining flits: 13437 13525 13554 13591 13636 13648 13668 13677 13700 13717 [...] (73 flits)
Measured flits: 31884 31931 31974 31995 31996 32001 32005 32009 32011 32012 [...] (51 flits)
Class 0:
Remaining flits: 13437 13525 13554 13591 13636 13648 13668 13677 13700 13717 [...] (57 flits)
Measured flits: 31884 32001 32005 32011 32044 32050 32056 32060 32061 32072 [...] (35 flits)
Class 0:
Remaining flits: 13437 13525 13554 13591 13636 13648 13668 13677 13700 13717 [...] (46 flits)
Measured flits: 31884 32056 32060 32085 32086 32095 32101 32105 32109 32111 [...] (24 flits)
Class 0:
Remaining flits: 13437 13525 13554 13591 13636 13648 13668 13677 13700 13717 [...] (36 flits)
Measured flits: 31884 32085 32095 32109 32117 32118 32119 32120 32129 32133 [...] (14 flits)
Class 0:
Remaining flits: 13437 13525 13554 13591 13636 13648 13668 13677 13700 13717 [...] (32 flits)
Measured flits: 31884 32085 32095 32118 32120 32129 32136 32141 32147 32149 (10 flits)
Class 0:
Remaining flits: 13437 13525 13554 13591 13636 13648 13668 13677 13700 13717 [...] (30 flits)
Measured flits: 31884 32095 32118 32129 32136 32141 32147 32149 (8 flits)
Class 0:
Remaining flits: 13437 13525 13554 13591 13636 13648 13668 13677 13700 13717 [...] (28 flits)
Measured flits: 31884 32118 32136 32141 32147 32149 (6 flits)
Class 0:
Remaining flits: 13437 13525 13554 13591 13636 13648 13668 13677 13700 13717 [...] (27 flits)
Measured flits: 32118 32136 32141 32147 32149 (5 flits)
Class 0:
Remaining flits: 13437 13525 13554 13591 13636 13648 13668 13677 13700 13717 [...] (27 flits)
Measured flits: 32118 32136 32141 32147 32149 (5 flits)
Class 0:
Remaining flits: 13437 13525 13554 13591 13636 13648 13668 13677 13700 13717 [...] (27 flits)
Measured flits: 32118 32136 32141 32147 32149 (5 flits)
Class 0:
Remaining flits: 13437 13525 13554 13591 13636 13648 13668 13677 13700 13717 [...] (27 flits)
Measured flits: 32118 32136 32141 32147 32149 (5 flits)
Class 0:
Remaining flits: 13437 13525 13554 13591 13636 13648 13668 13677 13700 13717 [...] (27 flits)
Measured flits: 32118 32136 32141 32147 32149 (5 flits)
Class 0:
Remaining flits: 13437 13525 13554 13591 13636 13648 13668 13677 13700 13717 [...] (27 flits)
Measured flits: 32118 32136 32141 32147 32149 (5 flits)
Class 0:
Remaining flits: 13437 13525 13554 13591 13636 13648 13668 13677 13700 13717 [...] (27 flits)
Measured flits: 32118 32136 32141 32147 32149 (5 flits)
Class 0:
Remaining flits: 13437 13525 13554 13591 13636 13648 13668 13677 13700 13717 [...] (27 flits)
Measured flits: 32118 32136 32141 32147 32149 (5 flits)
Class 0:
Remaining flits: 13437 13525 13554 13591 13636 13648 13668 13677 13700 13717 [...] (27 flits)
Measured flits: 32118 32136 32141 32147 32149 (5 flits)
Class 0:
Remaining flits: 13437 13525 13554 13591 13636 13648 13668 13677 13700 13717 [...] (27 flits)
Measured flits: 32118 32136 32141 32147 32149 (5 flits)
Class 0:
Remaining flits: 13437 13525 13554 13591 13636 13648 13668 13677 13700 13717 [...] (27 flits)
Measured flits: 32118 32136 32141 32147 32149 (5 flits)
Class 0:
Remaining flits: 13437 13525 13554 13591 13636 13648 13668 13677 13700 13717 [...] (27 flits)
Measured flits: 32118 32136 32141 32147 32149 (5 flits)
Class 0:
Remaining flits: 13437 13525 13554 13591 13636 13648 13668 13677 13700 13717 [...] (27 flits)
Measured flits: 32118 32136 32141 32147 32149 (5 flits)
Class 0:
Remaining flits: 13437 13525 13554 13591 13636 13648 13668 13677 13700 13717 [...] (27 flits)
Measured flits: 32118 32136 32141 32147 32149 (5 flits)
Class 0:
Remaining flits: 13437 13525 13554 13591 13636 13648 13668 13677 13700 13717 [...] (27 flits)
Measured flits: 32118 32136 32141 32147 32149 (5 flits)
Class 0:
Remaining flits: 13437 13525 13554 13591 13636 13648 13668 13677 13700 13717 [...] (27 flits)
Measured flits: 32118 32136 32141 32147 32149 (5 flits)
Class 0:
Remaining flits: 13437 13525 13554 13591 13636 13648 13668 13677 13700 13717 [...] (27 flits)
Measured flits: 32118 32136 32141 32147 32149 (5 flits)
Class 0:
Remaining flits: 13437 13525 13554 13591 13636 13648 13668 13677 13700 13717 [...] (27 flits)
Measured flits: 32118 32136 32141 32147 32149 (5 flits)
Class 0:
Remaining flits: 13437 13525 13554 13591 13636 13648 13668 13677 13700 13717 [...] (27 flits)
Measured flits: 32118 32136 32141 32147 32149 (5 flits)
Class 0:
Remaining flits: 13437 13525 13554 13591 13636 13648 13668 13677 13700 13717 [...] (27 flits)
Measured flits: 32118 32136 32141 32147 32149 (5 flits)
Class 0:
Remaining flits: 13437 13525 13554 13591 13636 13648 13668 13677 13700 13717 [...] (27 flits)
Measured flits: 32118 32136 32141 32147 32149 (5 flits)
Class 0:
Remaining flits: 13437 13525 13554 13591 13636 13648 13668 13677 13700 13717 [...] (27 flits)
Measured flits: 32118 32136 32141 32147 32149 (5 flits)
Class 0:
Remaining flits: 13437 13525 13554 13591 13636 13648 13668 13677 13700 13717 [...] (27 flits)
Measured flits: 32118 32136 32141 32147 32149 (5 flits)
Class 0:
Remaining flits: 13437 13525 13554 13591 13636 13648 13668 13677 13700 13717 [...] (27 flits)
Measured flits: 32118 32136 32141 32147 32149 (5 flits)
Class 0:
Remaining flits: 13437 13525 13554 13591 13636 13648 13668 13677 13700 13717 [...] (27 flits)
Measured flits: 32118 32136 32141 32147 32149 (5 flits)
Class 0:
Remaining flits: 13437 13525 13554 13591 13636 13648 13668 13677 13700 13717 [...] (27 flits)
Measured flits: 32118 32136 32141 32147 32149 (5 flits)
Class 0:
Remaining flits: 13437 13525 13554 13591 13636 13648 13668 13677 13700 13717 [...] (27 flits)
Measured flits: 32118 32136 32141 32147 32149 (5 flits)
Class 0:
Remaining flits: 13437 13525 13554 13591 13636 13648 13668 13677 13700 13717 [...] (27 flits)
Measured flits: 32118 32136 32141 32147 32149 (5 flits)
Class 0:
Remaining flits: 13437 13525 13554 13591 13636 13648 13668 13677 13700 13717 [...] (27 flits)
Measured flits: 32118 32136 32141 32147 32149 (5 flits)
Class 0:
Remaining flits: 13437 13525 13554 13591 13636 13648 13668 13677 13700 13717 [...] (27 flits)
Measured flits: 32118 32136 32141 32147 32149 (5 flits)
Class 0:
Remaining flits: 13437 13525 13554 13591 13636 13648 13668 13677 13700 13717 [...] (27 flits)
Measured flits: 32118 32136 32141 32147 32149 (5 flits)
Class 0:
Remaining flits: 13437 13525 13554 13591 13636 13648 13668 13677 13700 13717 [...] (27 flits)
Measured flits: 32118 32136 32141 32147 32149 (5 flits)
Class 0:
Remaining flits: 13437 13525 13554 13591 13636 13648 13668 13677 13700 13717 [...] (27 flits)
Measured flits: 32118 32136 32141 32147 32149 (5 flits)
Class 0:
Remaining flits: 13437 13525 13554 13591 13636 13648 13668 13677 13700 13717 [...] (27 flits)
Measured flits: 32118 32136 32141 32147 32149 (5 flits)
Class 0:
Remaining flits: 13437 13525 13554 13591 13636 13648 13668 13677 13700 13717 [...] (27 flits)
Measured flits: 32118 32136 32141 32147 32149 (5 flits)
Class 0:
Remaining flits: 13437 13525 13554 13591 13636 13648 13668 13677 13700 13717 [...] (27 flits)
Measured flits: 32118 32136 32141 32147 32149 (5 flits)
Class 0:
Remaining flits: 13437 13525 13554 13591 13636 13648 13668 13677 13700 13717 [...] (27 flits)
Measured flits: 32118 32136 32141 32147 32149 (5 flits)
Class 0:
Remaining flits: 13437 13525 13554 13591 13636 13648 13668 13677 13700 13717 [...] (27 flits)
Measured flits: 32118 32136 32141 32147 32149 (5 flits)
Class 0:
Remaining flits: 13437 13525 13554 13591 13636 13648 13668 13677 13700 13717 [...] (27 flits)
Measured flits: 32118 32136 32141 32147 32149 (5 flits)
Class 0:
Remaining flits: 13437 13525 13554 13591 13636 13648 13668 13677 13700 13717 [...] (27 flits)
Measured flits: 32118 32136 32141 32147 32149 (5 flits)
Class 0:
Remaining flits: 13437 13525 13554 13591 13636 13648 13668 13677 13700 13717 [...] (27 flits)
Measured flits: 32118 32136 32141 32147 32149 (5 flits)
Class 0:
Remaining flits: 13437 13525 13554 13591 13636 13648 13668 13677 13700 13717 [...] (27 flits)
Measured flits: 32118 32136 32141 32147 32149 (5 flits)
Class 0:
Remaining flits: 13437 13525 13554 13591 13636 13648 13668 13677 13700 13717 [...] (27 flits)
Measured flits: 32118 32136 32141 32147 32149 (5 flits)
Class 0:
Remaining flits: 13437 13525 13554 13591 13636 13648 13668 13677 13700 13717 [...] (27 flits)
Measured flits: 32118 32136 32141 32147 32149 (5 flits)
Class 0:
Remaining flits: 13437 13525 13554 13591 13636 13648 13668 13677 13700 13717 [...] (27 flits)
Measured flits: 32118 32136 32141 32147 32149 (5 flits)
Class 0:
Remaining flits: 13437 13525 13554 13591 13636 13648 13668 13677 13700 13717 [...] (27 flits)
Measured flits: 32118 32136 32141 32147 32149 (5 flits)
Class 0:
Remaining flits: 13437 13525 13554 13591 13636 13648 13668 13677 13700 13717 [...] (27 flits)
Measured flits: 32118 32136 32141 32147 32149 (5 flits)
Class 0:
Remaining flits: 13437 13525 13554 13591 13636 13648 13668 13677 13700 13717 [...] (27 flits)
Measured flits: 32118 32136 32141 32147 32149 (5 flits)
Class 0:
Remaining flits: 13437 13525 13554 13591 13636 13648 13668 13677 13700 13717 [...] (27 flits)
Measured flits: 32118 32136 32141 32147 32149 (5 flits)
Class 0:
Remaining flits: 13437 13525 13554 13591 13636 13648 13668 13677 13700 13717 [...] (27 flits)
Measured flits: 32118 32136 32141 32147 32149 (5 flits)
Class 0:
Remaining flits: 13437 13525 13554 13591 13636 13648 13668 13677 13700 13717 [...] (27 flits)
Measured flits: 32118 32136 32141 32147 32149 (5 flits)
Class 0:
Remaining flits: 13437 13525 13554 13591 13636 13648 13668 13677 13700 13717 [...] (27 flits)
Measured flits: 32118 32136 32141 32147 32149 (5 flits)
Class 0:
Remaining flits: 13437 13525 13554 13591 13636 13648 13668 13677 13700 13717 [...] (27 flits)
Measured flits: 32118 32136 32141 32147 32149 (5 flits)
Class 0:
Remaining flits: 13437 13525 13554 13591 13636 13648 13668 13677 13700 13717 [...] (27 flits)
Measured flits: 32118 32136 32141 32147 32149 (5 flits)
Class 0:
Remaining flits: 13437 13525 13554 13591 13636 13648 13668 13677 13700 13717 [...] (27 flits)
Measured flits: 32118 32136 32141 32147 32149 (5 flits)
Class 0:
Remaining flits: 13437 13525 13554 13591 13636 13648 13668 13677 13700 13717 [...] (27 flits)
Measured flits: 32118 32136 32141 32147 32149 (5 flits)
Class 0:
Remaining flits: 13437 13525 13554 13591 13636 13648 13668 13677 13700 13717 [...] (27 flits)
Measured flits: 32118 32136 32141 32147 32149 (5 flits)
Class 0:
Remaining flits: 13437 13525 13554 13591 13636 13648 13668 13677 13700 13717 [...] (27 flits)
Measured flits: 32118 32136 32141 32147 32149 (5 flits)
Class 0:
Remaining flits: 13437 13525 13554 13591 13636 13648 13668 13677 13700 13717 [...] (27 flits)
Measured flits: 32118 32136 32141 32147 32149 (5 flits)
Class 0:
Remaining flits: 13437 13525 13554 13591 13636 13648 13668 13677 13700 13717 [...] (27 flits)
Measured flits: 32118 32136 32141 32147 32149 (5 flits)
Class 0:
Remaining flits: 13437 13525 13554 13591 13636 13648 13668 13677 13700 13717 [...] (27 flits)
Measured flits: 32118 32136 32141 32147 32149 (5 flits)
Class 0:
Remaining flits: 13437 13525 13554 13591 13636 13648 13668 13677 13700 13717 [...] (27 flits)
Measured flits: 32118 32136 32141 32147 32149 (5 flits)
Class 0:
Remaining flits: 13437 13525 13554 13591 13636 13648 13668 13677 13700 13717 [...] (27 flits)
Measured flits: 32118 32136 32141 32147 32149 (5 flits)
Class 0:
Remaining flits: 13437 13525 13554 13591 13636 13648 13668 13677 13700 13717 [...] (27 flits)
Measured flits: 32118 32136 32141 32147 32149 (5 flits)
Class 0:
Remaining flits: 13437 13525 13554 13591 13636 13648 13668 13677 13700 13717 [...] (27 flits)
Measured flits: 32118 32136 32141 32147 32149 (5 flits)
Class 0:
Remaining flits: 13437 13525 13554 13591 13636 13648 13668 13677 13700 13717 [...] (27 flits)
Measured flits: 32118 32136 32141 32147 32149 (5 flits)
Class 0:
Remaining flits: 13437 13525 13554 13591 13636 13648 13668 13677 13700 13717 [...] (27 flits)
Measured flits: 32118 32136 32141 32147 32149 (5 flits)
Class 0:
Remaining flits: 13437 13525 13554 13591 13636 13648 13668 13677 13700 13717 [...] (27 flits)
Measured flits: 32118 32136 32141 32147 32149 (5 flits)
Class 0:
Remaining flits: 13437 13525 13554 13591 13636 13648 13668 13677 13700 13717 [...] (27 flits)
Measured flits: 32118 32136 32141 32147 32149 (5 flits)
Class 0:
Remaining flits: 13437 13525 13554 13591 13636 13648 13668 13677 13700 13717 [...] (27 flits)
Measured flits: 32118 32136 32141 32147 32149 (5 flits)
Class 0:
Remaining flits: 13437 13525 13554 13591 13636 13648 13668 13677 13700 13717 [...] (27 flits)
Measured flits: 32118 32136 32141 32147 32149 (5 flits)
Class 0:
Remaining flits: 13437 13525 13554 13591 13636 13648 13668 13677 13700 13717 [...] (27 flits)
Measured flits: 32118 32136 32141 32147 32149 (5 flits)
Class 0:
Remaining flits: 13437 13525 13554 13591 13636 13648 13668 13677 13700 13717 [...] (27 flits)
Measured flits: 32118 32136 32141 32147 32149 (5 flits)
Class 0:
Remaining flits: 13437 13525 13554 13591 13636 13648 13668 13677 13700 13717 [...] (27 flits)
Measured flits: 32118 32136 32141 32147 32149 (5 flits)
Class 0:
Remaining flits: 13437 13525 13554 13591 13636 13648 13668 13677 13700 13717 [...] (27 flits)
Measured flits: 32118 32136 32141 32147 32149 (5 flits)
Class 0:
Remaining flits: 13437 13525 13554 13591 13636 13648 13668 13677 13700 13717 [...] (27 flits)
Measured flits: 32118 32136 32141 32147 32149 (5 flits)
Class 0:
Remaining flits: 13437 13525 13554 13591 13636 13648 13668 13677 13700 13717 [...] (27 flits)
Measured flits: 32118 32136 32141 32147 32149 (5 flits)
Class 0:
Remaining flits: 13437 13525 13554 13591 13636 13648 13668 13677 13700 13717 [...] (27 flits)
Measured flits: 32118 32136 32141 32147 32149 (5 flits)
Class 0:
Remaining flits: 13437 13525 13554 13591 13636 13648 13668 13677 13700 13717 [...] (27 flits)
Measured flits: 32118 32136 32141 32147 32149 (5 flits)
Class 0:
Remaining flits: 13437 13525 13554 13591 13636 13648 13668 13677 13700 13717 [...] (27 flits)
Measured flits: 32118 32136 32141 32147 32149 (5 flits)
Class 0:
Remaining flits: 13437 13525 13554 13591 13636 13648 13668 13677 13700 13717 [...] (27 flits)
Measured flits: 32118 32136 32141 32147 32149 (5 flits)
Class 0:
Remaining flits: 13437 13525 13554 13591 13636 13648 13668 13677 13700 13717 [...] (27 flits)
Measured flits: 32118 32136 32141 32147 32149 (5 flits)
Class 0:
Remaining flits: 13437 13525 13554 13591 13636 13648 13668 13677 13700 13717 [...] (27 flits)
Measured flits: 32118 32136 32141 32147 32149 (5 flits)
Class 0:
Remaining flits: 13437 13525 13554 13591 13636 13648 13668 13677 13700 13717 [...] (27 flits)
Measured flits: 32118 32136 32141 32147 32149 (5 flits)
Class 0:
Remaining flits: 13437 13525 13554 13591 13636 13648 13668 13677 13700 13717 [...] (27 flits)
Measured flits: 32118 32136 32141 32147 32149 (5 flits)
Class 0:
Remaining flits: 13437 13525 13554 13591 13636 13648 13668 13677 13700 13717 [...] (27 flits)
Measured flits: 32118 32136 32141 32147 32149 (5 flits)
Class 0:
Remaining flits: 13437 13525 13554 13591 13636 13648 13668 13677 13700 13717 [...] (27 flits)
Measured flits: 32118 32136 32141 32147 32149 (5 flits)
Class 0:
Remaining flits: 13437 13525 13554 13591 13636 13648 13668 13677 13700 13717 [...] (27 flits)
Measured flits: 32118 32136 32141 32147 32149 (5 flits)
Class 0:
Remaining flits: 13437 13525 13554 13591 13636 13648 13668 13677 13700 13717 [...] (27 flits)
Measured flits: 32118 32136 32141 32147 32149 (5 flits)
Time taken is 7000 cycles
====== Traffic class 0 ======

Total number of flits generated = 32150, changed lanes = 31289
Overall minimum packet latency = 7 (1 samples)
Overall average packet latency = 60.1462 (1 samples)
Overall maximum packet latency = 205 (1 samples)
Overall minimum network latency = 8 (1 samples)
Overall average network latency = 54.1255 (1 samples)
Overall maximum network latency = 175 (1 samples)
Overall minimum flit latency = 8 (1 samples)
Overall average flit latency = 54.6514 (1 samples)
Overall maximum flit latency = 175 (1 samples)
Overall minimum fragmentation = 0 (1 samples)
Overall average fragmentation = 0 (1 samples)
Overall maximum fragmentation = 0 (1 samples)
Overall minimum injected packet rate = 0 (1 samples)
Overall average injected packet rate = 0.327479 (1 samples)
Overall maximum injected packet rate = 0.358667 (1 samples)
Overall minimum accepted packet rate = 0.299 (1 samples)
Overall average accepted packet rate = 0.328771 (1 samples)
Overall maximum accepted packet rate = 0.338667 (1 samples)
Overall minimum injected flit rate = 0 (1 samples)
Overall average injected flit rate = 0.327479 (1 samples)
Overall maximum injected flit rate = 0.358667 (1 samples)
Overall minimum accepted flit rate = 0.299 (1 samples)
Overall average accepted flit rate = 0.328771 (1 samples)
Overall maximum accepted flit rate = 0.338667 (1 samples)
Overall average injected packet size = 1 (1 samples)
Overall average accepted packet size = 1 (1 samples)
Overall average hops = 3.48253 (1 samples)
Overall throughput of the network (flits/cycle) = 10.7077
Overall throughput of the network (packets/cycle) = 10.7077
Total run time 6596.94
