make: Nothing to be done for `all'.
Master: Running timer....
Master: Running SRC....
BEGIN Configuration File: ./examples/bitrev
// Topology

topology = mesh;
k = 4;
n = 2;

// Routing
routing_function = dor;

// Flow control
num_vcs     = 4;
vc_buf_size = 4;
wait_for_tail_credit = 0;

// Router architecture
vc_allocator = islip;
sw_allocator = islip;
alloc_iters  = 1;

credit_delay   = 1;
routing_delay  = 1;
vc_alloc_delay = 1;
sw_alloc_delay = 1;

input_speedup     = 1;
output_speedup    = 1;
internal_speedup  = 1.0;

vc_busy_when_full = 0;

// Traffic
traffic = uniform;
packet_size = 1;

// Simulation
sim_type = throughput;

injection_rate = 0.11;

END Configuration File: ./examples/bitrev
===== Time: 10000 =====
Class 0:
Minimum packet latency = 7
Average packet latency = 28.7979
Maximum packet latency = 143
Minimum network latency = 8
Average network latency = 29.7979
Maximum network latency = 144
Slowest packet = 7219
Minimum flit latency = 8
Average flit latency = 29.7979
Maximum flit latency = 144
Slowest flit = 7219
Minimum fragmentation = 0
Average fragmentation = 0
Maximum fragmentation = 0
Minimum injected packet rate = 0.1042 (at node 14)
Average injected packet rate = 0.108356
Maximum injected packet rate = 0.1121 (at node 6)
Minimum accepted packet rate = 0.0975 (at node 4)
Average accepted packet rate = 0.108056
Maximum accepted packet rate = 0.1152 (at node 8)
Minimum injected flit rate = 0.1042 (at node 14)
Average injected flit rate = 0.108356
Maximum injected flit rate = 0.1121 (at node 6)
Minimum accepted flit rate = 0.0975 (at node 4)
Average accepted flit rate = 0.108056
Maximum accepted flit rate = 0.1152 (at node 8)
Total number of injected packets = 17337
Total number of injected flits = 17337
Average injected packet length = 1
Total number of accepted packets = 17289
Total number of accepted flits = 17289
Average accepted packet length = 1
Total in-flight flits = 48 (0 measured)
===== Time: 20000 =====
Class 0:
Minimum packet latency = 7
Average packet latency = 28.6619
Maximum packet latency = 158
Minimum network latency = 8
Average network latency = 29.6619
Maximum network latency = 159
Slowest packet = 28621
Minimum flit latency = 8
Average flit latency = 29.6619
Maximum flit latency = 159
Slowest flit = 28621
Minimum fragmentation = 0
Average fragmentation = 0
Maximum fragmentation = 0
Minimum injected packet rate = 0.1066 (at node 14)
Average injected packet rate = 0.1091
Maximum injected packet rate = 0.11255 (at node 10)
Minimum accepted packet rate = 0.0996 (at node 4)
Average accepted packet rate = 0.108941
Maximum accepted packet rate = 0.1133 (at node 8)
Minimum injected flit rate = 0.1066 (at node 14)
Average injected flit rate = 0.1091
Maximum injected flit rate = 0.11255 (at node 10)
Minimum accepted flit rate = 0.0996 (at node 4)
Average accepted flit rate = 0.108941
Maximum accepted flit rate = 0.1133 (at node 8)
Total number of injected packets = 34912
Total number of injected flits = 34912
Average injected packet length = 1
Total number of accepted packets = 34861
Total number of accepted flits = 34861
Average accepted packet length = 1
Total in-flight flits = 51 (0 measured)
===== Time: 30000 =====
Class 0:
Minimum packet latency = 7
Average packet latency = 28.8405
Maximum packet latency = 164
Minimum network latency = 8
Average network latency = 29.8405
Maximum network latency = 165
Slowest packet = 43469
Minimum flit latency = 8
Average flit latency = 29.8405
Maximum flit latency = 165
Slowest flit = 43469
Minimum fragmentation = 0
Average fragmentation = 0
Maximum fragmentation = 0
Minimum injected packet rate = 0.1038 (at node 2)
Average injected packet rate = 0.108919
Maximum injected packet rate = 0.1129 (at node 13)
Minimum accepted packet rate = 0.1051 (at node 12)
Average accepted packet rate = 0.108969
Maximum accepted packet rate = 0.1154 (at node 7)
Minimum injected flit rate = 0.1038 (at node 2)
Average injected flit rate = 0.108919
Maximum injected flit rate = 0.1129 (at node 13)
Minimum accepted flit rate = 0.1051 (at node 12)
Average accepted flit rate = 0.108969
Maximum accepted flit rate = 0.1154 (at node 7)
Total number of injected packets = 17427
Total number of injected flits = 17427
Average injected packet length = 1
Total number of accepted packets = 17435
Total number of accepted flits = 17435
Average accepted packet length = 1
Total in-flight flits = 43 (0 measured)
===== Time: 40000 =====
Class 0:
Minimum packet latency = 7
Average packet latency = 28.6753
Maximum packet latency = 175
Minimum network latency = 8
Average network latency = 29.6753
Maximum network latency = 176
Slowest packet = 58806
Minimum flit latency = 8
Average flit latency = 29.6842
Maximum flit latency = 176
Slowest flit = 58806
Minimum fragmentation = 0
Average fragmentation = 0
Maximum fragmentation = 0
Minimum injected packet rate = 0.106 (at node 7)
Average injected packet rate = 0.110419
Maximum injected packet rate = 0.1159 (at node 14)
Minimum accepted packet rate = 0.1051 (at node 1)
Average accepted packet rate = 0.110344
Maximum accepted packet rate = 0.1152 (at node 4)
Minimum injected flit rate = 0.106 (at node 7)
Average injected flit rate = 0.110419
Maximum injected flit rate = 0.1159 (at node 14)
Minimum accepted flit rate = 0.1051 (at node 1)
Average accepted flit rate = 0.110344
Maximum accepted flit rate = 0.1152 (at node 4)
Total number of injected packets = 17667
Total number of injected flits = 17667
Average injected packet length = 1
Total number of accepted packets = 17655
Total number of accepted flits = 17655
Average accepted packet length = 1
Total in-flight flits = 55 (55 measured)
===== Time: 50000 =====
Class 0:
Minimum packet latency = 7
Average packet latency = 28.6776
Maximum packet latency = 175
Minimum network latency = 8
Average network latency = 29.6776
Maximum network latency = 176
Slowest packet = 58806
Minimum flit latency = 8
Average flit latency = 29.682
Maximum flit latency = 176
Slowest flit = 58806
Minimum fragmentation = 0
Average fragmentation = 0
Maximum fragmentation = 0
Minimum injected packet rate = 0.10665 (at node 7)
Average injected packet rate = 0.110066
Maximum injected packet rate = 0.1159 (at node 14)
Minimum accepted packet rate = 0.10695 (at node 13)
Average accepted packet rate = 0.110016
Maximum accepted packet rate = 0.11435 (at node 4)
Minimum injected flit rate = 0.10665 (at node 7)
Average injected flit rate = 0.110066
Maximum injected flit rate = 0.1159 (at node 14)
Minimum accepted flit rate = 0.10695 (at node 13)
Average accepted flit rate = 0.110016
Maximum accepted flit rate = 0.11435 (at node 4)
Total number of injected packets = 35221
Total number of injected flits = 35221
Average injected packet length = 1
Total number of accepted packets = 35205
Total number of accepted flits = 35205
Average accepted packet length = 1
Total in-flight flits = 59 (59 measured)
===== Time: 60000 =====
Class 0:
Minimum packet latency = 7
Average packet latency = 28.7099
Maximum packet latency = 227
Minimum network latency = 8
Average network latency = 29.7099
Maximum network latency = 228
Slowest packet = 90652
Minimum flit latency = 8
Average flit latency = 29.7128
Maximum flit latency = 228
Slowest flit = 90652
Minimum fragmentation = 0
Average fragmentation = 0
Maximum fragmentation = 0
Minimum injected packet rate = 0.107767 (at node 1)
Average injected packet rate = 0.110113
Maximum injected packet rate = 0.114633 (at node 14)
Minimum accepted packet rate = 0.107567 (at node 13)
Average accepted packet rate = 0.110098
Maximum accepted packet rate = 0.1152 (at node 4)
Minimum injected flit rate = 0.107767 (at node 1)
Average injected flit rate = 0.110113
Maximum injected flit rate = 0.114633 (at node 14)
Minimum accepted flit rate = 0.107567 (at node 13)
Average accepted flit rate = 0.110098
Maximum accepted flit rate = 0.1152 (at node 4)
Total number of injected packets = 52854
Total number of injected flits = 52854
Average injected packet length = 1
Total number of accepted packets = 52847
Total number of accepted flits = 52847
Average accepted packet length = 1
Total in-flight flits = 50 (50 measured)
Draining remaining packets ...
Class 0:
Remaining flits: 105138 105141 105144 105145 105151 105152 105154 105156 105157 105158 [...] (39 flits)
Measured flits: 105138 105141 105144 105145 105151 105152 105154 105156 105157 105158 [...] (39 flits)
Class 0:
Remaining flits: 105157 105160 105161 105164 105165 105171 105172 105173 105178 105180 [...] (16 flits)
Measured flits: 105157 105160 105161 105164 105165 105171 105172 105173 105178 105180 [...] (16 flits)
Class 0:
Remaining flits: 105164 105165 105171 105181 105186 105189 (6 flits)
Measured flits: 105164 105165 105171 105181 105186 105189 (6 flits)
Class 0:
Remaining flits: (0 flits)
Measured flits: (0 flits)
Class 0:
Remaining flits: (0 flits)
Measured flits: (0 flits)
Class 0:
Remaining flits: (0 flits)
Measured flits: (0 flits)
Class 0:
Remaining flits: (0 flits)
Measured flits: (0 flits)
Class 0:
Remaining flits: (0 flits)
Measured flits: (0 flits)
Class 0:
Remaining flits: (0 flits)
Measured flits: (0 flits)
Class 0:
Remaining flits: (0 flits)
Measured flits: (0 flits)
Class 0:
Remaining flits: (0 flits)
Measured flits: (0 flits)
Class 0:
Remaining flits: (0 flits)
Measured flits: (0 flits)
Class 0:
Remaining flits: (0 flits)
Measured flits: (0 flits)
Class 0:
Remaining flits: (0 flits)
Measured flits: (0 flits)
Class 0:
Remaining flits: (0 flits)
Measured flits: (0 flits)
Class 0:
Remaining flits: (0 flits)
Measured flits: (0 flits)
Class 0:
Remaining flits: (0 flits)
Measured flits: (0 flits)
Class 0:
Remaining flits: (0 flits)
Measured flits: (0 flits)
Class 0:
Remaining flits: (0 flits)
Measured flits: (0 flits)
Class 0:
Remaining flits: (0 flits)
Measured flits: (0 flits)
Class 0:
Remaining flits: (0 flits)
Measured flits: (0 flits)
Class 0:
Remaining flits: (0 flits)
Measured flits: (0 flits)
Class 0:
Remaining flits: (0 flits)
Measured flits: (0 flits)
Class 0:
Remaining flits: (0 flits)
Measured flits: (0 flits)
Class 0:
Remaining flits: (0 flits)
Measured flits: (0 flits)
Class 0:
Remaining flits: (0 flits)
Measured flits: (0 flits)
Class 0:
Remaining flits: (0 flits)
Measured flits: (0 flits)
Class 0:
Remaining flits: (0 flits)
Measured flits: (0 flits)
Class 0:
Remaining flits: (0 flits)
Measured flits: (0 flits)
Class 0:
Remaining flits: (0 flits)
Measured flits: (0 flits)
Class 0:
Remaining flits: (0 flits)
Measured flits: (0 flits)
Class 0:
Remaining flits: (0 flits)
Measured flits: (0 flits)
Class 0:
Remaining flits: (0 flits)
Measured flits: (0 flits)
Class 0:
Remaining flits: (0 flits)
Measured flits: (0 flits)
Class 0:
Remaining flits: (0 flits)
Measured flits: (0 flits)
Class 0:
Remaining flits: (0 flits)
Measured flits: (0 flits)
Class 0:
Remaining flits: (0 flits)
Measured flits: (0 flits)
Class 0:
Remaining flits: (0 flits)
Measured flits: (0 flits)
Class 0:
Remaining flits: (0 flits)
Measured flits: (0 flits)
Class 0:
Remaining flits: (0 flits)
Measured flits: (0 flits)
Class 0:
Remaining flits: (0 flits)
Measured flits: (0 flits)
Class 0:
Remaining flits: (0 flits)
Measured flits: (0 flits)
Class 0:
Remaining flits: (0 flits)
Measured flits: (0 flits)
Class 0:
Remaining flits: (0 flits)
Measured flits: (0 flits)
Class 0:
Remaining flits: (0 flits)
Measured flits: (0 flits)
Class 0:
Remaining flits: (0 flits)
Measured flits: (0 flits)
Class 0:
Remaining flits: (0 flits)
Measured flits: (0 flits)
Class 0:
Remaining flits: (0 flits)
Measured flits: (0 flits)
Class 0:
Remaining flits: (0 flits)
Measured flits: (0 flits)
Class 0:
Remaining flits: (0 flits)
Measured flits: (0 flits)
Class 0:
Remaining flits: (0 flits)
Measured flits: (0 flits)
Class 0:
Remaining flits: (0 flits)
Measured flits: (0 flits)
Class 0:
Remaining flits: (0 flits)
Measured flits: (0 flits)
Class 0:
Remaining flits: (0 flits)
Measured flits: (0 flits)
Class 0:
Remaining flits: (0 flits)
Measured flits: (0 flits)
Class 0:
Remaining flits: (0 flits)
Measured flits: (0 flits)
Class 0:
Remaining flits: (0 flits)
Measured flits: (0 flits)
Class 0:
Remaining flits: (0 flits)
Measured flits: (0 flits)
Class 0:
Remaining flits: (0 flits)
Measured flits: (0 flits)
Class 0:
Remaining flits: (0 flits)
Measured flits: (0 flits)
Class 0:
Remaining flits: (0 flits)
Measured flits: (0 flits)
Class 0:
Remaining flits: (0 flits)
Measured flits: (0 flits)
Class 0:
Remaining flits: (0 flits)
Measured flits: (0 flits)
Class 0:
Remaining flits: (0 flits)
Measured flits: (0 flits)
Class 0:
Remaining flits: (0 flits)
Measured flits: (0 flits)
Class 0:
Remaining flits: (0 flits)
Measured flits: (0 flits)
Class 0:
Remaining flits: (0 flits)
Measured flits: (0 flits)
Class 0:
Remaining flits: (0 flits)
Measured flits: (0 flits)
Class 0:
Remaining flits: (0 flits)
Measured flits: (0 flits)
Class 0:
Remaining flits: (0 flits)
Measured flits: (0 flits)
Class 0:
Remaining flits: (0 flits)
Measured flits: (0 flits)
Class 0:
Remaining flits: (0 flits)
Measured flits: (0 flits)
Class 0:
Remaining flits: (0 flits)
Measured flits: (0 flits)
Class 0:
Remaining flits: (0 flits)
Measured flits: (0 flits)
Class 0:
Remaining flits: (0 flits)
Measured flits: (0 flits)
Class 0:
Remaining flits: (0 flits)
Measured flits: (0 flits)
Class 0:
Remaining flits: (0 flits)
Measured flits: (0 flits)
Class 0:
Remaining flits: (0 flits)
Measured flits: (0 flits)
Class 0:
Remaining flits: (0 flits)
Measured flits: (0 flits)
Class 0:
Remaining flits: (0 flits)
Measured flits: (0 flits)
Class 0:
Remaining flits: (0 flits)
Measured flits: (0 flits)
Class 0:
Remaining flits: (0 flits)
Measured flits: (0 flits)
Class 0:
Remaining flits: (0 flits)
Measured flits: (0 flits)
Class 0:
Remaining flits: (0 flits)
Measured flits: (0 flits)
Class 0:
Remaining flits: (0 flits)
Measured flits: (0 flits)
Class 0:
Remaining flits: (0 flits)
Measured flits: (0 flits)
Class 0:
Remaining flits: (0 flits)
Measured flits: (0 flits)
Class 0:
Remaining flits: (0 flits)
Measured flits: (0 flits)
Class 0:
Remaining flits: (0 flits)
Measured flits: (0 flits)
Class 0:
Remaining flits: (0 flits)
Measured flits: (0 flits)
Class 0:
Remaining flits: (0 flits)
Measured flits: (0 flits)
Class 0:
Remaining flits: (0 flits)
Measured flits: (0 flits)
Class 0:
Remaining flits: (0 flits)
Measured flits: (0 flits)
Class 0:
Remaining flits: (0 flits)
Measured flits: (0 flits)
Class 0:
Remaining flits: (0 flits)
Measured flits: (0 flits)
Class 0:
Remaining flits: (0 flits)
Measured flits: (0 flits)
Class 0:
Remaining flits: (0 flits)
Measured flits: (0 flits)
Class 0:
Remaining flits: (0 flits)
Measured flits: (0 flits)
Class 0:
Remaining flits: (0 flits)
Measured flits: (0 flits)
Class 0:
Remaining flits: (0 flits)
Measured flits: (0 flits)
Class 0:
Remaining flits: (0 flits)
Measured flits: (0 flits)
Time taken is 61000 cycles
====== Traffic class 0 ======

Total number of flits generated = 105193, changed lanes = 100256
Overall minimum packet latency = 7 (1 samples)
Overall average packet latency = 28.7129 (1 samples)
Overall maximum packet latency = 227 (1 samples)
Overall minimum network latency = 8 (1 samples)
Overall average network latency = 29.7129 (1 samples)
Overall maximum network latency = 228 (1 samples)
Overall minimum flit latency = 8 (1 samples)
Overall average flit latency = 29.7158 (1 samples)
Overall maximum flit latency = 228 (1 samples)
Overall minimum fragmentation = 0 (1 samples)
Overall average fragmentation = 0 (1 samples)
Overall maximum fragmentation = 0 (1 samples)
Overall minimum injected packet rate = 0.107767 (1 samples)
Overall average injected packet rate = 0.110113 (1 samples)
Overall maximum injected packet rate = 0.114633 (1 samples)
Overall minimum accepted packet rate = 0.107567 (1 samples)
Overall average accepted packet rate = 0.110098 (1 samples)
Overall maximum accepted packet rate = 0.1152 (1 samples)
Overall minimum injected flit rate = 0.107767 (1 samples)
Overall average injected flit rate = 0.110113 (1 samples)
Overall maximum injected flit rate = 0.114633 (1 samples)
Overall minimum accepted flit rate = 0.107567 (1 samples)
Overall average accepted flit rate = 0.110098 (1 samples)
Overall maximum accepted flit rate = 0.1152 (1 samples)
Overall average injected packet size = 1 (1 samples)
Overall average accepted packet size = 1 (1 samples)
Overall average hops = 3.50125 (1 samples)
Overall throughput of the network (flits/cycle) = 3.50643
Overall throughput of the network (packets/cycle) = 3.50643
Total run time 165.731
