make: Nothing to be done for `all'.
Master: Running timer....
Master: Running SRC....
BEGIN Configuration File: ./examples/bitrev
// Topology

topology = mesh;
k = 4;
n = 2;

// Routing
routing_function = dor;

// Flow control
num_vcs     = 4;
vc_buf_size = 4;
wait_for_tail_credit = 0;

// Router architecture
vc_allocator = islip;
sw_allocator = islip;
alloc_iters  = 1;

credit_delay   = 1;
routing_delay  = 1;
vc_alloc_delay = 1;
sw_alloc_delay = 1;

input_speedup     = 1;
output_speedup    = 1;
internal_speedup  = 1.0;

vc_busy_when_full = 0;

// Traffic
traffic = uniform;
packet_size = 1;

// Simulation
sim_type = throughput;

injection_rate = 0.39;

END Configuration File: ./examples/bitrev
===== Time: 1000 =====
Class 0:
Minimum packet latency = 7
Average packet latency = 90.5201
Maximum packet latency = 327
Minimum network latency = 8
Average network latency = 73.2409
Maximum network latency = 212
Slowest packet = 1216
Minimum flit latency = 8
Average flit latency = 73.2409
Maximum flit latency = 212
Slowest flit = 3056
Minimum fragmentation = 0
Average fragmentation = 0
Maximum fragmentation = 0
Minimum injected packet rate = 0.322 (at node 14)
Average injected packet rate = 0.357438
Maximum injected packet rate = 0.388 (at node 8)
Minimum accepted packet rate = 0.297 (at node 14)
Average accepted packet rate = 0.326625
Maximum accepted packet rate = 0.351 (at node 8)
Minimum injected flit rate = 0.322 (at node 14)
Average injected flit rate = 0.357438
Maximum injected flit rate = 0.388 (at node 8)
Minimum accepted flit rate = 0.297 (at node 14)
Average accepted flit rate = 0.326625
Maximum accepted flit rate = 0.351 (at node 8)
Total number of injected packets = 5719
Total number of injected flits = 5719
Average injected packet length = 1
Total number of accepted packets = 5226
Total number of accepted flits = 5226
Average accepted packet length = 1
Total in-flight flits = 508 (0 measured)
===== Time: 2000 =====
Class 0:
Minimum packet latency = 7
Average packet latency = 145.627
Maximum packet latency = 479
Minimum network latency = 8
Average network latency = 80.9945
Maximum network latency = 267
Slowest packet = 1216
Minimum flit latency = 8
Average flit latency = 80.9945
Maximum flit latency = 267
Slowest flit = 9188
Minimum fragmentation = 0
Average fragmentation = 0
Maximum fragmentation = 0
Minimum injected packet rate = 0.317 (at node 1)
Average injected packet rate = 0.351906
Maximum injected packet rate = 0.3845 (at node 8)
Minimum accepted packet rate = 0.3045 (at node 4)
Average accepted packet rate = 0.336906
Maximum accepted packet rate = 0.3555 (at node 7)
Minimum injected flit rate = 0.317 (at node 1)
Average injected flit rate = 0.351906
Maximum injected flit rate = 0.3845 (at node 8)
Minimum accepted flit rate = 0.3045 (at node 4)
Average accepted flit rate = 0.336906
Maximum accepted flit rate = 0.3555 (at node 7)
Total number of injected packets = 11261
Total number of injected flits = 11261
Average injected packet length = 1
Total number of accepted packets = 10781
Total number of accepted flits = 10781
Average accepted packet length = 1
Total in-flight flits = 490 (0 measured)
===== Time: 3000 =====
Class 0:
Minimum packet latency = 9
Average packet latency = 286.459
Maximum packet latency = 640
Minimum network latency = 10
Average network latency = 84.9846
Maximum network latency = 200
Slowest packet = 10713
Minimum flit latency = 10
Average flit latency = 84.9846
Maximum flit latency = 200
Slowest flit = 10281
Minimum fragmentation = 0
Average fragmentation = 0
Maximum fragmentation = 0
Minimum injected packet rate = 0.323 (at node 10)
Average injected packet rate = 0.353438
Maximum injected packet rate = 0.397 (at node 12)
Minimum accepted packet rate = 0.32 (at node 5)
Average accepted packet rate = 0.35225
Maximum accepted packet rate = 0.387 (at node 8)
Minimum injected flit rate = 0.323 (at node 10)
Average injected flit rate = 0.353438
Maximum injected flit rate = 0.397 (at node 12)
Minimum accepted flit rate = 0.32 (at node 5)
Average accepted flit rate = 0.35225
Maximum accepted flit rate = 0.387 (at node 8)
Total number of injected packets = 5655
Total number of injected flits = 5655
Average injected packet length = 1
Total number of accepted packets = 5636
Total number of accepted flits = 5636
Average accepted packet length = 1
Total in-flight flits = 511 (0 measured)
===== Time: 4000 =====
Class 0:
Minimum packet latency = 19
Average packet latency = 391.985
Maximum packet latency = 791
Minimum network latency = 20
Average network latency = 86.192
Maximum network latency = 216
Slowest packet = 16931
Minimum flit latency = 20
Average flit latency = 87.7747
Maximum flit latency = 216
Slowest flit = 17016
Minimum fragmentation = 0
Average fragmentation = 0
Maximum fragmentation = 0
Minimum injected packet rate = 0.309 (at node 10)
Average injected packet rate = 0.349938
Maximum injected packet rate = 0.384 (at node 12)
Minimum accepted packet rate = 0.319 (at node 13)
Average accepted packet rate = 0.349313
Maximum accepted packet rate = 0.371 (at node 5)
Minimum injected flit rate = 0.309 (at node 10)
Average injected flit rate = 0.349938
Maximum injected flit rate = 0.384 (at node 12)
Minimum accepted flit rate = 0.319 (at node 13)
Average accepted flit rate = 0.349313
Maximum accepted flit rate = 0.371 (at node 5)
Total number of injected packets = 5599
Total number of injected flits = 5599
Average injected packet length = 1
Total number of accepted packets = 5589
Total number of accepted flits = 5589
Average accepted packet length = 1
Total in-flight flits = 520 (520 measured)
===== Time: 5000 =====
Class 0:
Minimum packet latency = 19
Average packet latency = 443.61
Maximum packet latency = 975
Minimum network latency = 20
Average network latency = 88.627
Maximum network latency = 274
Slowest packet = 16931
Minimum flit latency = 20
Average flit latency = 89.3093
Maximum flit latency = 274
Slowest flit = 24475
Minimum fragmentation = 0
Average fragmentation = 0
Maximum fragmentation = 0
Minimum injected packet rate = 0.312 (at node 2)
Average injected packet rate = 0.347594
Maximum injected packet rate = 0.388 (at node 7)
Minimum accepted packet rate = 0.3135 (at node 4)
Average accepted packet rate = 0.348187
Maximum accepted packet rate = 0.361 (at node 9)
Minimum injected flit rate = 0.312 (at node 2)
Average injected flit rate = 0.347594
Maximum injected flit rate = 0.388 (at node 7)
Minimum accepted flit rate = 0.3135 (at node 4)
Average accepted flit rate = 0.348187
Maximum accepted flit rate = 0.361 (at node 9)
Total number of injected packets = 11123
Total number of injected flits = 11123
Average injected packet length = 1
Total number of accepted packets = 11142
Total number of accepted flits = 11142
Average accepted packet length = 1
Total in-flight flits = 488 (488 measured)
===== Time: 6000 =====
Class 0:
Minimum packet latency = 19
Average packet latency = 490.904
Maximum packet latency = 1159
Minimum network latency = 20
Average network latency = 88.3618
Maximum network latency = 274
Slowest packet = 16931
Minimum flit latency = 20
Average flit latency = 88.8261
Maximum flit latency = 274
Slowest flit = 24475
Minimum fragmentation = 0
Average fragmentation = 0
Maximum fragmentation = 0
Minimum injected packet rate = 0.311 (at node 2)
Average injected packet rate = 0.347146
Maximum injected packet rate = 0.384 (at node 7)
Minimum accepted packet rate = 0.317 (at node 4)
Average accepted packet rate = 0.347125
Maximum accepted packet rate = 0.357333 (at node 1)
Minimum injected flit rate = 0.311 (at node 2)
Average injected flit rate = 0.347146
Maximum injected flit rate = 0.384 (at node 7)
Minimum accepted flit rate = 0.317 (at node 4)
Average accepted flit rate = 0.347125
Maximum accepted flit rate = 0.357333 (at node 1)
Total number of injected packets = 16663
Total number of injected flits = 16663
Average injected packet length = 1
Total number of accepted packets = 16662
Total number of accepted flits = 16662
Average accepted packet length = 1
Total in-flight flits = 512 (512 measured)
Draining remaining packets ...
Class 0:
Remaining flits: 32542 32659 32766 32784 32813 32826 32830 32838 32860 32870 [...] (455 flits)
Measured flits: 32542 32659 32766 32784 32813 32826 32830 32838 32860 32870 [...] (455 flits)
Class 0:
Remaining flits: 32659 32813 32826 32830 32838 32881 32929 32937 32941 32957 [...] (393 flits)
Measured flits: 32659 32813 32826 32830 32838 32881 32929 32937 32941 32957 [...] (393 flits)
Class 0:
Remaining flits: 32813 32929 32937 32941 32982 33003 33013 33014 33016 33028 [...] (339 flits)
Measured flits: 32813 32929 32937 32941 32982 33003 33013 33014 33016 33028 [...] (339 flits)
Class 0:
Remaining flits: 32929 32982 33003 33016 33028 33034 33042 33057 33060 33062 [...] (284 flits)
Measured flits: 32929 32982 33003 33016 33028 33034 33042 33057 33060 33062 [...] (284 flits)
Class 0:
Remaining flits: 32929 32982 33034 33042 33057 33060 33062 33063 33091 33101 [...] (225 flits)
Measured flits: 32929 32982 33034 33042 33057 33060 33062 33063 33091 33101 [...] (225 flits)
Class 0:
Remaining flits: 32929 32982 33057 33060 33062 33101 33112 33117 33127 33162 [...] (176 flits)
Measured flits: 32929 32982 33057 33060 33062 33101 33112 33117 33127 33162 [...] (176 flits)
Class 0:
Remaining flits: 32982 33060 33101 33112 33117 33127 33162 33202 33210 33215 [...] (130 flits)
Measured flits: 32982 33060 33101 33112 33117 33127 33162 33202 33210 33215 [...] (130 flits)
Class 0:
Remaining flits: 32982 33060 33101 33127 33202 33247 33266 33296 33297 33313 [...] (80 flits)
Measured flits: 32982 33060 33101 33127 33202 33247 33266 33296 33297 33313 [...] (80 flits)
Class 0:
Remaining flits: 33060 33247 33296 33352 33364 33400 33417 33429 33435 33442 [...] (47 flits)
Measured flits: 33060 33247 33296 33352 33364 33400 33417 33429 33435 33442 [...] (47 flits)
Class 0:
Remaining flits: 33247 33352 33364 33417 33429 33435 33446 33447 33462 33473 [...] (28 flits)
Measured flits: 33247 33352 33364 33417 33429 33435 33446 33447 33462 33473 [...] (28 flits)
Class 0:
Remaining flits: 33364 33447 33473 33498 33521 33537 33568 33572 33576 33584 [...] (12 flits)
Measured flits: 33364 33447 33473 33498 33521 33537 33568 33572 33576 33584 [...] (12 flits)
Class 0:
Remaining flits: 33447 33473 33537 33568 33572 33576 33584 33586 33590 (9 flits)
Measured flits: 33447 33473 33537 33568 33572 33576 33584 33586 33590 (9 flits)
Class 0:
Remaining flits: 33537 33568 33572 33576 33584 33586 33590 (7 flits)
Measured flits: 33537 33568 33572 33576 33584 33586 33590 (7 flits)
Class 0:
Remaining flits: 33537 33568 33572 33576 33584 33586 33590 (7 flits)
Measured flits: 33537 33568 33572 33576 33584 33586 33590 (7 flits)
Class 0:
Remaining flits: 33537 33568 33572 33576 33584 33586 33590 (7 flits)
Measured flits: 33537 33568 33572 33576 33584 33586 33590 (7 flits)
Class 0:
Remaining flits: 33537 33568 33572 33576 33584 33586 33590 (7 flits)
Measured flits: 33537 33568 33572 33576 33584 33586 33590 (7 flits)
Class 0:
Remaining flits: 33537 33568 33572 33576 33584 33586 33590 (7 flits)
Measured flits: 33537 33568 33572 33576 33584 33586 33590 (7 flits)
Class 0:
Remaining flits: 33537 33568 33572 33576 33584 33586 33590 (7 flits)
Measured flits: 33537 33568 33572 33576 33584 33586 33590 (7 flits)
Class 0:
Remaining flits: 33537 33568 33572 33576 33584 33586 33590 (7 flits)
Measured flits: 33537 33568 33572 33576 33584 33586 33590 (7 flits)
Class 0:
Remaining flits: 33537 33568 33572 33576 33584 33586 33590 (7 flits)
Measured flits: 33537 33568 33572 33576 33584 33586 33590 (7 flits)
Class 0:
Remaining flits: 33537 33568 33572 33576 33584 33586 33590 (7 flits)
Measured flits: 33537 33568 33572 33576 33584 33586 33590 (7 flits)
Class 0:
Remaining flits: 33537 33568 33572 33576 33584 33586 33590 (7 flits)
Measured flits: 33537 33568 33572 33576 33584 33586 33590 (7 flits)
Class 0:
Remaining flits: 33537 33568 33572 33576 33584 33586 33590 (7 flits)
Measured flits: 33537 33568 33572 33576 33584 33586 33590 (7 flits)
Class 0:
Remaining flits: 33537 33568 33572 33576 33584 33586 33590 (7 flits)
Measured flits: 33537 33568 33572 33576 33584 33586 33590 (7 flits)
Class 0:
Remaining flits: 33537 33568 33572 33576 33584 33586 33590 (7 flits)
Measured flits: 33537 33568 33572 33576 33584 33586 33590 (7 flits)
Class 0:
Remaining flits: 33537 33568 33572 33576 33584 33586 33590 (7 flits)
Measured flits: 33537 33568 33572 33576 33584 33586 33590 (7 flits)
Class 0:
Remaining flits: 33537 33568 33572 33576 33584 33586 33590 (7 flits)
Measured flits: 33537 33568 33572 33576 33584 33586 33590 (7 flits)
Class 0:
Remaining flits: 33537 33568 33572 33576 33584 33586 33590 (7 flits)
Measured flits: 33537 33568 33572 33576 33584 33586 33590 (7 flits)
Class 0:
Remaining flits: 33537 33568 33572 33576 33584 33586 33590 (7 flits)
Measured flits: 33537 33568 33572 33576 33584 33586 33590 (7 flits)
Class 0:
Remaining flits: 33537 33568 33572 33576 33584 33586 33590 (7 flits)
Measured flits: 33537 33568 33572 33576 33584 33586 33590 (7 flits)
Class 0:
Remaining flits: 33537 33568 33572 33576 33584 33586 33590 (7 flits)
Measured flits: 33537 33568 33572 33576 33584 33586 33590 (7 flits)
Class 0:
Remaining flits: 33537 33568 33572 33576 33584 33586 33590 (7 flits)
Measured flits: 33537 33568 33572 33576 33584 33586 33590 (7 flits)
Class 0:
Remaining flits: 33537 33568 33572 33576 33584 33586 33590 (7 flits)
Measured flits: 33537 33568 33572 33576 33584 33586 33590 (7 flits)
Class 0:
Remaining flits: 33537 33568 33572 33576 33584 33586 33590 (7 flits)
Measured flits: 33537 33568 33572 33576 33584 33586 33590 (7 flits)
Class 0:
Remaining flits: 33537 33568 33572 33576 33584 33586 33590 (7 flits)
Measured flits: 33537 33568 33572 33576 33584 33586 33590 (7 flits)
Class 0:
Remaining flits: 33537 33568 33572 33576 33584 33586 33590 (7 flits)
Measured flits: 33537 33568 33572 33576 33584 33586 33590 (7 flits)
Class 0:
Remaining flits: 33537 33568 33572 33576 33584 33586 33590 (7 flits)
Measured flits: 33537 33568 33572 33576 33584 33586 33590 (7 flits)
Class 0:
Remaining flits: 33537 33568 33572 33576 33584 33586 33590 (7 flits)
Measured flits: 33537 33568 33572 33576 33584 33586 33590 (7 flits)
Class 0:
Remaining flits: 33537 33568 33572 33576 33584 33586 33590 (7 flits)
Measured flits: 33537 33568 33572 33576 33584 33586 33590 (7 flits)
Class 0:
Remaining flits: 33537 33568 33572 33576 33584 33586 33590 (7 flits)
Measured flits: 33537 33568 33572 33576 33584 33586 33590 (7 flits)
Class 0:
Remaining flits: 33537 33568 33572 33576 33584 33586 33590 (7 flits)
Measured flits: 33537 33568 33572 33576 33584 33586 33590 (7 flits)
Class 0:
Remaining flits: 33537 33568 33572 33576 33584 33586 33590 (7 flits)
Measured flits: 33537 33568 33572 33576 33584 33586 33590 (7 flits)
Class 0:
Remaining flits: 33537 33568 33572 33576 33584 33586 33590 (7 flits)
Measured flits: 33537 33568 33572 33576 33584 33586 33590 (7 flits)
Class 0:
Remaining flits: 33537 33568 33572 33576 33584 33586 33590 (7 flits)
Measured flits: 33537 33568 33572 33576 33584 33586 33590 (7 flits)
Class 0:
Remaining flits: 33537 33568 33572 33576 33584 33586 33590 (7 flits)
Measured flits: 33537 33568 33572 33576 33584 33586 33590 (7 flits)
Class 0:
Remaining flits: 33537 33568 33572 33576 33584 33586 33590 (7 flits)
Measured flits: 33537 33568 33572 33576 33584 33586 33590 (7 flits)
Class 0:
Remaining flits: 33537 33568 33572 33576 33584 33586 33590 (7 flits)
Measured flits: 33537 33568 33572 33576 33584 33586 33590 (7 flits)
Class 0:
Remaining flits: 33537 33568 33572 33576 33584 33586 33590 (7 flits)
Measured flits: 33537 33568 33572 33576 33584 33586 33590 (7 flits)
Class 0:
Remaining flits: 33537 33568 33572 33576 33584 33586 33590 (7 flits)
Measured flits: 33537 33568 33572 33576 33584 33586 33590 (7 flits)
Class 0:
Remaining flits: 33537 33568 33572 33576 33584 33586 33590 (7 flits)
Measured flits: 33537 33568 33572 33576 33584 33586 33590 (7 flits)
Class 0:
Remaining flits: 33537 33568 33572 33576 33584 33586 33590 (7 flits)
Measured flits: 33537 33568 33572 33576 33584 33586 33590 (7 flits)
Class 0:
Remaining flits: 33537 33568 33572 33576 33584 33586 33590 (7 flits)
Measured flits: 33537 33568 33572 33576 33584 33586 33590 (7 flits)
Class 0:
Remaining flits: 33537 33568 33572 33576 33584 33586 33590 (7 flits)
Measured flits: 33537 33568 33572 33576 33584 33586 33590 (7 flits)
Class 0:
Remaining flits: 33537 33568 33572 33576 33584 33586 33590 (7 flits)
Measured flits: 33537 33568 33572 33576 33584 33586 33590 (7 flits)
Class 0:
Remaining flits: 33537 33568 33572 33576 33584 33586 33590 (7 flits)
Measured flits: 33537 33568 33572 33576 33584 33586 33590 (7 flits)
Class 0:
Remaining flits: 33537 33568 33572 33576 33584 33586 33590 (7 flits)
Measured flits: 33537 33568 33572 33576 33584 33586 33590 (7 flits)
Class 0:
Remaining flits: 33537 33568 33572 33576 33584 33586 33590 (7 flits)
Measured flits: 33537 33568 33572 33576 33584 33586 33590 (7 flits)
Class 0:
Remaining flits: 33537 33568 33572 33576 33584 33586 33590 (7 flits)
Measured flits: 33537 33568 33572 33576 33584 33586 33590 (7 flits)
Class 0:
Remaining flits: 33537 33568 33572 33576 33584 33586 33590 (7 flits)
Measured flits: 33537 33568 33572 33576 33584 33586 33590 (7 flits)
Class 0:
Remaining flits: 33537 33568 33572 33576 33584 33586 33590 (7 flits)
Measured flits: 33537 33568 33572 33576 33584 33586 33590 (7 flits)
Class 0:
Remaining flits: 33537 33568 33572 33576 33584 33586 33590 (7 flits)
Measured flits: 33537 33568 33572 33576 33584 33586 33590 (7 flits)
Class 0:
Remaining flits: 33537 33568 33572 33576 33584 33586 33590 (7 flits)
Measured flits: 33537 33568 33572 33576 33584 33586 33590 (7 flits)
Class 0:
Remaining flits: 33537 33568 33572 33576 33584 33586 33590 (7 flits)
Measured flits: 33537 33568 33572 33576 33584 33586 33590 (7 flits)
Class 0:
Remaining flits: 33537 33568 33572 33576 33584 33586 33590 (7 flits)
Measured flits: 33537 33568 33572 33576 33584 33586 33590 (7 flits)
Class 0:
Remaining flits: 33537 33568 33572 33576 33584 33586 33590 (7 flits)
Measured flits: 33537 33568 33572 33576 33584 33586 33590 (7 flits)
Class 0:
Remaining flits: 33537 33568 33572 33576 33584 33586 33590 (7 flits)
Measured flits: 33537 33568 33572 33576 33584 33586 33590 (7 flits)
Class 0:
Remaining flits: 33537 33568 33572 33576 33584 33586 33590 (7 flits)
Measured flits: 33537 33568 33572 33576 33584 33586 33590 (7 flits)
Class 0:
Remaining flits: 33537 33568 33572 33576 33584 33586 33590 (7 flits)
Measured flits: 33537 33568 33572 33576 33584 33586 33590 (7 flits)
Class 0:
Remaining flits: 33537 33568 33572 33576 33584 33586 33590 (7 flits)
Measured flits: 33537 33568 33572 33576 33584 33586 33590 (7 flits)
Class 0:
Remaining flits: 33537 33568 33572 33576 33584 33586 33590 (7 flits)
Measured flits: 33537 33568 33572 33576 33584 33586 33590 (7 flits)
Class 0:
Remaining flits: 33537 33568 33572 33576 33584 33586 33590 (7 flits)
Measured flits: 33537 33568 33572 33576 33584 33586 33590 (7 flits)
Class 0:
Remaining flits: 33537 33568 33572 33576 33584 33586 33590 (7 flits)
Measured flits: 33537 33568 33572 33576 33584 33586 33590 (7 flits)
Class 0:
Remaining flits: 33537 33568 33572 33576 33584 33586 33590 (7 flits)
Measured flits: 33537 33568 33572 33576 33584 33586 33590 (7 flits)
Class 0:
Remaining flits: 33537 33568 33572 33576 33584 33586 33590 (7 flits)
Measured flits: 33537 33568 33572 33576 33584 33586 33590 (7 flits)
Class 0:
Remaining flits: 33537 33568 33572 33576 33584 33586 33590 (7 flits)
Measured flits: 33537 33568 33572 33576 33584 33586 33590 (7 flits)
Class 0:
Remaining flits: 33537 33568 33572 33576 33584 33586 33590 (7 flits)
Measured flits: 33537 33568 33572 33576 33584 33586 33590 (7 flits)
Class 0:
Remaining flits: 33537 33568 33572 33576 33584 33586 33590 (7 flits)
Measured flits: 33537 33568 33572 33576 33584 33586 33590 (7 flits)
Class 0:
Remaining flits: 33537 33568 33572 33576 33584 33586 33590 (7 flits)
Measured flits: 33537 33568 33572 33576 33584 33586 33590 (7 flits)
Class 0:
Remaining flits: 33537 33568 33572 33576 33584 33586 33590 (7 flits)
Measured flits: 33537 33568 33572 33576 33584 33586 33590 (7 flits)
Class 0:
Remaining flits: 33537 33568 33572 33576 33584 33586 33590 (7 flits)
Measured flits: 33537 33568 33572 33576 33584 33586 33590 (7 flits)
Class 0:
Remaining flits: 33537 33568 33572 33576 33584 33586 33590 (7 flits)
Measured flits: 33537 33568 33572 33576 33584 33586 33590 (7 flits)
Class 0:
Remaining flits: 33537 33568 33572 33576 33584 33586 33590 (7 flits)
Measured flits: 33537 33568 33572 33576 33584 33586 33590 (7 flits)
Class 0:
Remaining flits: 33537 33568 33572 33576 33584 33586 33590 (7 flits)
Measured flits: 33537 33568 33572 33576 33584 33586 33590 (7 flits)
Class 0:
Remaining flits: 33537 33568 33572 33576 33584 33586 33590 (7 flits)
Measured flits: 33537 33568 33572 33576 33584 33586 33590 (7 flits)
Class 0:
Remaining flits: 33537 33568 33572 33576 33584 33586 33590 (7 flits)
Measured flits: 33537 33568 33572 33576 33584 33586 33590 (7 flits)
Class 0:
Remaining flits: 33537 33568 33572 33576 33584 33586 33590 (7 flits)
Measured flits: 33537 33568 33572 33576 33584 33586 33590 (7 flits)
Class 0:
Remaining flits: 33537 33568 33572 33576 33584 33586 33590 (7 flits)
Measured flits: 33537 33568 33572 33576 33584 33586 33590 (7 flits)
Class 0:
Remaining flits: 33537 33568 33572 33576 33584 33586 33590 (7 flits)
Measured flits: 33537 33568 33572 33576 33584 33586 33590 (7 flits)
Class 0:
Remaining flits: 33537 33568 33572 33576 33584 33586 33590 (7 flits)
Measured flits: 33537 33568 33572 33576 33584 33586 33590 (7 flits)
Class 0:
Remaining flits: 33537 33568 33572 33576 33584 33586 33590 (7 flits)
Measured flits: 33537 33568 33572 33576 33584 33586 33590 (7 flits)
Class 0:
Remaining flits: 33537 33568 33572 33576 33584 33586 33590 (7 flits)
Measured flits: 33537 33568 33572 33576 33584 33586 33590 (7 flits)
Class 0:
Remaining flits: 33537 33568 33572 33576 33584 33586 33590 (7 flits)
Measured flits: 33537 33568 33572 33576 33584 33586 33590 (7 flits)
Class 0:
Remaining flits: 33537 33568 33572 33576 33584 33586 33590 (7 flits)
Measured flits: 33537 33568 33572 33576 33584 33586 33590 (7 flits)
Class 0:
Remaining flits: 33537 33568 33572 33576 33584 33586 33590 (7 flits)
Measured flits: 33537 33568 33572 33576 33584 33586 33590 (7 flits)
Class 0:
Remaining flits: 33537 33568 33572 33576 33584 33586 33590 (7 flits)
Measured flits: 33537 33568 33572 33576 33584 33586 33590 (7 flits)
Class 0:
Remaining flits: 33537 33568 33572 33576 33584 33586 33590 (7 flits)
Measured flits: 33537 33568 33572 33576 33584 33586 33590 (7 flits)
Class 0:
Remaining flits: 33537 33568 33572 33576 33584 33586 33590 (7 flits)
Measured flits: 33537 33568 33572 33576 33584 33586 33590 (7 flits)
Class 0:
Remaining flits: 33537 33568 33572 33576 33584 33586 33590 (7 flits)
Measured flits: 33537 33568 33572 33576 33584 33586 33590 (7 flits)
Class 0:
Remaining flits: 33537 33568 33572 33576 33584 33586 33590 (7 flits)
Measured flits: 33537 33568 33572 33576 33584 33586 33590 (7 flits)
Class 0:
Remaining flits: 33537 33568 33572 33576 33584 33586 33590 (7 flits)
Measured flits: 33537 33568 33572 33576 33584 33586 33590 (7 flits)
Class 0:
Remaining flits: 33537 33568 33572 33576 33584 33586 33590 (7 flits)
Measured flits: 33537 33568 33572 33576 33584 33586 33590 (7 flits)
Time taken is 7000 cycles
====== Traffic class 0 ======

Total number of flits generated = 33591, changed lanes = 32893
Overall minimum packet latency = 19 (1 samples)
Overall average packet latency = 495.826 (1 samples)
Overall maximum packet latency = 1189 (1 samples)
Overall minimum network latency = 20 (1 samples)
Overall average network latency = 88.5802 (1 samples)
Overall maximum network latency = 274 (1 samples)
Overall minimum flit latency = 20 (1 samples)
Overall average flit latency = 89.0244 (1 samples)
Overall maximum flit latency = 274 (1 samples)
Overall minimum fragmentation = 0 (1 samples)
Overall average fragmentation = 0 (1 samples)
Overall maximum fragmentation = 0 (1 samples)
Overall minimum injected packet rate = 0.311 (1 samples)
Overall average injected packet rate = 0.347146 (1 samples)
Overall maximum injected packet rate = 0.384 (1 samples)
Overall minimum accepted packet rate = 0.317 (1 samples)
Overall average accepted packet rate = 0.347125 (1 samples)
Overall maximum accepted packet rate = 0.357333 (1 samples)
Overall minimum injected flit rate = 0.311 (1 samples)
Overall average injected flit rate = 0.347146 (1 samples)
Overall maximum injected flit rate = 0.384 (1 samples)
Overall minimum accepted flit rate = 0.317 (1 samples)
Overall average accepted flit rate = 0.347125 (1 samples)
Overall maximum accepted flit rate = 0.357333 (1 samples)
Overall average injected packet size = 1 (1 samples)
Overall average accepted packet size = 1 (1 samples)
Overall average hops = 3.50636 (1 samples)
Overall throughput of the network (flits/cycle) = 11.1947
Overall throughput of the network (packets/cycle) = 11.1947
Total run time 12233.4
