make: Nothing to be done for `all'.
Master: Running timer....
Master: Running SRC....
BEGIN Configuration File: ./examples/bitrev
// Topology

topology = mesh;
k = 4;
n = 2;

// Routing
routing_function = dor;

// Flow control
num_vcs     = 4;
vc_buf_size = 4;
wait_for_tail_credit = 0;

// Router architecture
vc_allocator = islip;
sw_allocator = islip;
alloc_iters  = 1;

credit_delay   = 1;
routing_delay  = 1;
vc_alloc_delay = 1;
sw_alloc_delay = 1;

input_speedup     = 1;
output_speedup    = 1;
internal_speedup  = 1.0;

vc_busy_when_full = 0;

// Traffic
traffic = uniform;
packet_size = 1;

// Simulation
sim_type = throughput;

injection_rate = 0.23;

END Configuration File: ./examples/bitrev
===== Time: 10000 =====
Class 0:
Minimum packet latency = 7
Average packet latency = 31.0328
Maximum packet latency = 96
Minimum network latency = 8
Average network latency = 32.0328
Maximum network latency = 97
Slowest packet = 16644
Minimum flit latency = 8
Average flit latency = 32.0328
Maximum flit latency = 97
Slowest flit = 16644
Minimum fragmentation = 0
Average fragmentation = 0
Maximum fragmentation = 0
Minimum injected packet rate = 0.2216 (at node 9)
Average injected packet rate = 0.228637
Maximum injected packet rate = 0.2352 (at node 15)
Minimum accepted packet rate = 0.2095 (at node 4)
Average accepted packet rate = 0.227869
Maximum accepted packet rate = 0.2364 (at node 7)
Minimum injected flit rate = 0.2216 (at node 9)
Average injected flit rate = 0.228637
Maximum injected flit rate = 0.2352 (at node 15)
Minimum accepted flit rate = 0.2095 (at node 4)
Average accepted flit rate = 0.227869
Maximum accepted flit rate = 0.2364 (at node 7)
Total number of injected packets = 36582
Total number of injected flits = 36582
Average injected packet length = 1
Total number of accepted packets = 36459
Total number of accepted flits = 36459
Average accepted packet length = 1
Total in-flight flits = 123 (0 measured)
===== Time: 20000 =====
Class 0:
Minimum packet latency = 7
Average packet latency = 31.0574
Maximum packet latency = 116
Minimum network latency = 8
Average network latency = 32.0574
Maximum network latency = 117
Slowest packet = 61103
Minimum flit latency = 8
Average flit latency = 32.0574
Maximum flit latency = 117
Slowest flit = 61103
Minimum fragmentation = 0
Average fragmentation = 0
Maximum fragmentation = 0
Minimum injected packet rate = 0.2255 (at node 5)
Average injected packet rate = 0.22915
Maximum injected packet rate = 0.2356 (at node 10)
Minimum accepted packet rate = 0.22125 (at node 4)
Average accepted packet rate = 0.228784
Maximum accepted packet rate = 0.23725 (at node 7)
Minimum injected flit rate = 0.2255 (at node 5)
Average injected flit rate = 0.22915
Maximum injected flit rate = 0.2356 (at node 10)
Minimum accepted flit rate = 0.22125 (at node 4)
Average accepted flit rate = 0.228784
Maximum accepted flit rate = 0.23725 (at node 7)
Total number of injected packets = 73328
Total number of injected flits = 73328
Average injected packet length = 1
Total number of accepted packets = 73211
Total number of accepted flits = 73211
Average accepted packet length = 1
Total in-flight flits = 117 (0 measured)
===== Time: 30000 =====
Class 0:
Minimum packet latency = 7
Average packet latency = 31.2052
Maximum packet latency = 110
Minimum network latency = 8
Average network latency = 32.2052
Maximum network latency = 111
Slowest packet = 88817
Minimum flit latency = 8
Average flit latency = 32.2052
Maximum flit latency = 111
Slowest flit = 88817
Minimum fragmentation = 0
Average fragmentation = 0
Maximum fragmentation = 0
Minimum injected packet rate = 0.2243 (at node 15)
Average injected packet rate = 0.230137
Maximum injected packet rate = 0.2362 (at node 13)
Minimum accepted packet rate = 0.2215 (at node 13)
Average accepted packet rate = 0.230219
Maximum accepted packet rate = 0.2413 (at node 4)
Minimum injected flit rate = 0.2243 (at node 15)
Average injected flit rate = 0.230137
Maximum injected flit rate = 0.2362 (at node 13)
Minimum accepted flit rate = 0.2215 (at node 13)
Average accepted flit rate = 0.230219
Maximum accepted flit rate = 0.2413 (at node 4)
Total number of injected packets = 36822
Total number of injected flits = 36822
Average injected packet length = 1
Total number of accepted packets = 36835
Total number of accepted flits = 36835
Average accepted packet length = 1
Total in-flight flits = 104 (0 measured)
===== Time: 40000 =====
Class 0:
Minimum packet latency = 7
Average packet latency = 31.3883
Maximum packet latency = 121
Minimum network latency = 8
Average network latency = 32.3883
Maximum network latency = 122
Slowest packet = 140060
Minimum flit latency = 8
Average flit latency = 32.4022
Maximum flit latency = 122
Slowest flit = 140060
Minimum fragmentation = 0
Average fragmentation = 0
Maximum fragmentation = 0
Minimum injected packet rate = 0.2242 (at node 4)
Average injected packet rate = 0.230931
Maximum injected packet rate = 0.2379 (at node 5)
Minimum accepted packet rate = 0.2236 (at node 8)
Average accepted packet rate = 0.230931
Maximum accepted packet rate = 0.2407 (at node 3)
Minimum injected flit rate = 0.2242 (at node 4)
Average injected flit rate = 0.230931
Maximum injected flit rate = 0.2379 (at node 5)
Minimum accepted flit rate = 0.2236 (at node 8)
Average accepted flit rate = 0.230931
Maximum accepted flit rate = 0.2407 (at node 3)
Total number of injected packets = 36949
Total number of injected flits = 36949
Average injected packet length = 1
Total number of accepted packets = 36949
Total number of accepted flits = 36949
Average accepted packet length = 1
Total in-flight flits = 104 (104 measured)
===== Time: 50000 =====
Class 0:
Minimum packet latency = 7
Average packet latency = 31.2701
Maximum packet latency = 123
Minimum network latency = 8
Average network latency = 32.2701
Maximum network latency = 124
Slowest packet = 176832
Minimum flit latency = 8
Average flit latency = 32.2773
Maximum flit latency = 124
Slowest flit = 176832
Minimum fragmentation = 0
Average fragmentation = 0
Maximum fragmentation = 0
Minimum injected packet rate = 0.2249 (at node 7)
Average injected packet rate = 0.229862
Maximum injected packet rate = 0.2359 (at node 14)
Minimum accepted packet rate = 0.21965 (at node 8)
Average accepted packet rate = 0.229831
Maximum accepted packet rate = 0.2374 (at node 5)
Minimum injected flit rate = 0.2249 (at node 7)
Average injected flit rate = 0.229862
Maximum injected flit rate = 0.2359 (at node 14)
Minimum accepted flit rate = 0.21965 (at node 8)
Average accepted flit rate = 0.229831
Maximum accepted flit rate = 0.2374 (at node 5)
Total number of injected packets = 73556
Total number of injected flits = 73556
Average injected packet length = 1
Total number of accepted packets = 73546
Total number of accepted flits = 73546
Average accepted packet length = 1
Total in-flight flits = 114 (114 measured)
===== Time: 60000 =====
Class 0:
Minimum packet latency = 7
Average packet latency = 31.2263
Maximum packet latency = 123
Minimum network latency = 8
Average network latency = 32.2263
Maximum network latency = 124
Slowest packet = 176832
Minimum flit latency = 8
Average flit latency = 32.2311
Maximum flit latency = 124
Slowest flit = 176832
Minimum fragmentation = 0
Average fragmentation = 0
Maximum fragmentation = 0
Minimum injected packet rate = 0.224633 (at node 10)
Average injected packet rate = 0.229696
Maximum injected packet rate = 0.2354 (at node 14)
Minimum accepted packet rate = 0.220633 (at node 8)
Average accepted packet rate = 0.229673
Maximum accepted packet rate = 0.235233 (at node 5)
Minimum injected flit rate = 0.224633 (at node 10)
Average injected flit rate = 0.229696
Maximum injected flit rate = 0.2354 (at node 14)
Minimum accepted flit rate = 0.220633 (at node 8)
Average accepted flit rate = 0.229673
Maximum accepted flit rate = 0.235233 (at node 5)
Total number of injected packets = 110254
Total number of injected flits = 110254
Average injected packet length = 1
Total number of accepted packets = 110243
Total number of accepted flits = 110243
Average accepted packet length = 1
Total in-flight flits = 115 (115 measured)
Draining remaining packets ...
Class 0:
Remaining flits: 220193 220217 220220 220247 220280 220281 220289 220294 220297 220301 [...] (74 flits)
Measured flits: 220193 220217 220220 220247 220280 220281 220289 220294 220297 220301 [...] (74 flits)
Class 0:
Remaining flits: 220193 220289 220301 220313 220316 220326 220334 220343 220345 220346 [...] (42 flits)
Measured flits: 220193 220289 220301 220313 220316 220326 220334 220343 220345 220346 [...] (42 flits)
Class 0:
Remaining flits: 220316 220351 220353 220357 220361 220365 220366 220367 220376 220382 [...] (20 flits)
Measured flits: 220316 220351 220353 220357 220361 220365 220366 220367 220376 220382 [...] (20 flits)
Class 0:
Remaining flits: 220351 220361 220367 220383 220391 220392 220394 220401 220402 (9 flits)
Measured flits: 220351 220361 220367 220383 220391 220392 220394 220401 220402 (9 flits)
Class 0:
Remaining flits: 220392 220394 (2 flits)
Measured flits: 220392 220394 (2 flits)
Class 0:
Remaining flits: 220394 (1 flits)
Measured flits: 220394 (1 flits)
Class 0:
Remaining flits: 220394 (1 flits)
Measured flits: 220394 (1 flits)
Class 0:
Remaining flits: 220394 (1 flits)
Measured flits: 220394 (1 flits)
Class 0:
Remaining flits: 220394 (1 flits)
Measured flits: 220394 (1 flits)
Class 0:
Remaining flits: 220394 (1 flits)
Measured flits: 220394 (1 flits)
Class 0:
Remaining flits: 220394 (1 flits)
Measured flits: 220394 (1 flits)
Class 0:
Remaining flits: 220394 (1 flits)
Measured flits: 220394 (1 flits)
Class 0:
Remaining flits: 220394 (1 flits)
Measured flits: 220394 (1 flits)
Class 0:
Remaining flits: 220394 (1 flits)
Measured flits: 220394 (1 flits)
Class 0:
Remaining flits: 220394 (1 flits)
Measured flits: 220394 (1 flits)
Class 0:
Remaining flits: 220394 (1 flits)
Measured flits: 220394 (1 flits)
Class 0:
Remaining flits: 220394 (1 flits)
Measured flits: 220394 (1 flits)
Class 0:
Remaining flits: 220394 (1 flits)
Measured flits: 220394 (1 flits)
Class 0:
Remaining flits: 220394 (1 flits)
Measured flits: 220394 (1 flits)
Class 0:
Remaining flits: 220394 (1 flits)
Measured flits: 220394 (1 flits)
Class 0:
Remaining flits: 220394 (1 flits)
Measured flits: 220394 (1 flits)
Class 0:
Remaining flits: 220394 (1 flits)
Measured flits: 220394 (1 flits)
Class 0:
Remaining flits: 220394 (1 flits)
Measured flits: 220394 (1 flits)
Class 0:
Remaining flits: 220394 (1 flits)
Measured flits: 220394 (1 flits)
Class 0:
Remaining flits: 220394 (1 flits)
Measured flits: 220394 (1 flits)
Class 0:
Remaining flits: 220394 (1 flits)
Measured flits: 220394 (1 flits)
Class 0:
Remaining flits: 220394 (1 flits)
Measured flits: 220394 (1 flits)
Class 0:
Remaining flits: 220394 (1 flits)
Measured flits: 220394 (1 flits)
Class 0:
Remaining flits: 220394 (1 flits)
Measured flits: 220394 (1 flits)
Class 0:
Remaining flits: 220394 (1 flits)
Measured flits: 220394 (1 flits)
Class 0:
Remaining flits: 220394 (1 flits)
Measured flits: 220394 (1 flits)
Class 0:
Remaining flits: 220394 (1 flits)
Measured flits: 220394 (1 flits)
Class 0:
Remaining flits: 220394 (1 flits)
Measured flits: 220394 (1 flits)
Class 0:
Remaining flits: 220394 (1 flits)
Measured flits: 220394 (1 flits)
Class 0:
Remaining flits: 220394 (1 flits)
Measured flits: 220394 (1 flits)
Class 0:
Remaining flits: 220394 (1 flits)
Measured flits: 220394 (1 flits)
Class 0:
Remaining flits: 220394 (1 flits)
Measured flits: 220394 (1 flits)
Class 0:
Remaining flits: 220394 (1 flits)
Measured flits: 220394 (1 flits)
Class 0:
Remaining flits: 220394 (1 flits)
Measured flits: 220394 (1 flits)
Class 0:
Remaining flits: 220394 (1 flits)
Measured flits: 220394 (1 flits)
Class 0:
Remaining flits: 220394 (1 flits)
Measured flits: 220394 (1 flits)
Class 0:
Remaining flits: 220394 (1 flits)
Measured flits: 220394 (1 flits)
Class 0:
Remaining flits: 220394 (1 flits)
Measured flits: 220394 (1 flits)
Class 0:
Remaining flits: 220394 (1 flits)
Measured flits: 220394 (1 flits)
Class 0:
Remaining flits: 220394 (1 flits)
Measured flits: 220394 (1 flits)
Class 0:
Remaining flits: 220394 (1 flits)
Measured flits: 220394 (1 flits)
Class 0:
Remaining flits: 220394 (1 flits)
Measured flits: 220394 (1 flits)
Class 0:
Remaining flits: 220394 (1 flits)
Measured flits: 220394 (1 flits)
Class 0:
Remaining flits: 220394 (1 flits)
Measured flits: 220394 (1 flits)
Class 0:
Remaining flits: 220394 (1 flits)
Measured flits: 220394 (1 flits)
Class 0:
Remaining flits: 220394 (1 flits)
Measured flits: 220394 (1 flits)
Class 0:
Remaining flits: 220394 (1 flits)
Measured flits: 220394 (1 flits)
Class 0:
Remaining flits: 220394 (1 flits)
Measured flits: 220394 (1 flits)
Class 0:
Remaining flits: 220394 (1 flits)
Measured flits: 220394 (1 flits)
Class 0:
Remaining flits: 220394 (1 flits)
Measured flits: 220394 (1 flits)
Class 0:
Remaining flits: 220394 (1 flits)
Measured flits: 220394 (1 flits)
Class 0:
Remaining flits: 220394 (1 flits)
Measured flits: 220394 (1 flits)
Class 0:
Remaining flits: 220394 (1 flits)
Measured flits: 220394 (1 flits)
Class 0:
Remaining flits: 220394 (1 flits)
Measured flits: 220394 (1 flits)
Class 0:
Remaining flits: 220394 (1 flits)
Measured flits: 220394 (1 flits)
Class 0:
Remaining flits: 220394 (1 flits)
Measured flits: 220394 (1 flits)
Class 0:
Remaining flits: 220394 (1 flits)
Measured flits: 220394 (1 flits)
Class 0:
Remaining flits: 220394 (1 flits)
Measured flits: 220394 (1 flits)
Class 0:
Remaining flits: 220394 (1 flits)
Measured flits: 220394 (1 flits)
Class 0:
Remaining flits: 220394 (1 flits)
Measured flits: 220394 (1 flits)
Class 0:
Remaining flits: 220394 (1 flits)
Measured flits: 220394 (1 flits)
Class 0:
Remaining flits: 220394 (1 flits)
Measured flits: 220394 (1 flits)
Class 0:
Remaining flits: 220394 (1 flits)
Measured flits: 220394 (1 flits)
Class 0:
Remaining flits: 220394 (1 flits)
Measured flits: 220394 (1 flits)
Class 0:
Remaining flits: 220394 (1 flits)
Measured flits: 220394 (1 flits)
Class 0:
Remaining flits: 220394 (1 flits)
Measured flits: 220394 (1 flits)
Class 0:
Remaining flits: 220394 (1 flits)
Measured flits: 220394 (1 flits)
Class 0:
Remaining flits: 220394 (1 flits)
Measured flits: 220394 (1 flits)
Class 0:
Remaining flits: 220394 (1 flits)
Measured flits: 220394 (1 flits)
Class 0:
Remaining flits: 220394 (1 flits)
Measured flits: 220394 (1 flits)
Class 0:
Remaining flits: 220394 (1 flits)
Measured flits: 220394 (1 flits)
Class 0:
Remaining flits: 220394 (1 flits)
Measured flits: 220394 (1 flits)
Class 0:
Remaining flits: 220394 (1 flits)
Measured flits: 220394 (1 flits)
Class 0:
Remaining flits: 220394 (1 flits)
Measured flits: 220394 (1 flits)
Class 0:
Remaining flits: 220394 (1 flits)
Measured flits: 220394 (1 flits)
Class 0:
Remaining flits: 220394 (1 flits)
Measured flits: 220394 (1 flits)
Class 0:
Remaining flits: 220394 (1 flits)
Measured flits: 220394 (1 flits)
Class 0:
Remaining flits: 220394 (1 flits)
Measured flits: 220394 (1 flits)
Class 0:
Remaining flits: 220394 (1 flits)
Measured flits: 220394 (1 flits)
Class 0:
Remaining flits: 220394 (1 flits)
Measured flits: 220394 (1 flits)
Class 0:
Remaining flits: 220394 (1 flits)
Measured flits: 220394 (1 flits)
Class 0:
Remaining flits: 220394 (1 flits)
Measured flits: 220394 (1 flits)
Class 0:
Remaining flits: 220394 (1 flits)
Measured flits: 220394 (1 flits)
Class 0:
Remaining flits: 220394 (1 flits)
Measured flits: 220394 (1 flits)
Class 0:
Remaining flits: 220394 (1 flits)
Measured flits: 220394 (1 flits)
Class 0:
Remaining flits: 220394 (1 flits)
Measured flits: 220394 (1 flits)
Class 0:
Remaining flits: 220394 (1 flits)
Measured flits: 220394 (1 flits)
Class 0:
Remaining flits: 220394 (1 flits)
Measured flits: 220394 (1 flits)
Class 0:
Remaining flits: 220394 (1 flits)
Measured flits: 220394 (1 flits)
Class 0:
Remaining flits: 220394 (1 flits)
Measured flits: 220394 (1 flits)
Class 0:
Remaining flits: 220394 (1 flits)
Measured flits: 220394 (1 flits)
Class 0:
Remaining flits: 220394 (1 flits)
Measured flits: 220394 (1 flits)
Class 0:
Remaining flits: 220394 (1 flits)
Measured flits: 220394 (1 flits)
Class 0:
Remaining flits: 220394 (1 flits)
Measured flits: 220394 (1 flits)
Class 0:
Remaining flits: 220394 (1 flits)
Measured flits: 220394 (1 flits)
Class 0:
Remaining flits: 220394 (1 flits)
Measured flits: 220394 (1 flits)
Time taken is 61000 cycles
====== Traffic class 0 ======

Total number of flits generated = 220404, changed lanes = 212013
Overall minimum packet latency = 7 (1 samples)
Overall average packet latency = 31.232 (1 samples)
Overall maximum packet latency = 123 (1 samples)
Overall minimum network latency = 8 (1 samples)
Overall average network latency = 32.232 (1 samples)
Overall maximum network latency = 124 (1 samples)
Overall minimum flit latency = 8 (1 samples)
Overall average flit latency = 32.2369 (1 samples)
Overall maximum flit latency = 124 (1 samples)
Overall minimum fragmentation = 0 (1 samples)
Overall average fragmentation = 0 (1 samples)
Overall maximum fragmentation = 0 (1 samples)
Overall minimum injected packet rate = 0.224633 (1 samples)
Overall average injected packet rate = 0.229696 (1 samples)
Overall maximum injected packet rate = 0.2354 (1 samples)
Overall minimum accepted packet rate = 0.220633 (1 samples)
Overall average accepted packet rate = 0.229673 (1 samples)
Overall maximum accepted packet rate = 0.235233 (1 samples)
Overall minimum injected flit rate = 0.224633 (1 samples)
Overall average injected flit rate = 0.229696 (1 samples)
Overall maximum injected flit rate = 0.2354 (1 samples)
Overall minimum accepted flit rate = 0.220633 (1 samples)
Overall average accepted flit rate = 0.229673 (1 samples)
Overall maximum accepted flit rate = 0.235233 (1 samples)
Overall average injected packet size = 1 (1 samples)
Overall average accepted packet size = 1 (1 samples)
Overall average hops = 3.50595 (1 samples)
Overall throughput of the network (flits/cycle) = 7.34677
Overall throughput of the network (packets/cycle) = 7.34677
Total run time 905.14
