make: Nothing to be done for `all'.
Master: Running timer....
Master: Running SRC....
BEGIN Configuration File: ./examples/bitrev
// Topology

topology = mesh;
k = 4;
n = 2;

// Routing
routing_function = dor;

// Flow control
num_vcs     = 4;
vc_buf_size = 4;
wait_for_tail_credit = 0;

// Router architecture
vc_allocator = islip;
sw_allocator = islip;
alloc_iters  = 1;

credit_delay   = 1;
routing_delay  = 1;
vc_alloc_delay = 1;
sw_alloc_delay = 1;

input_speedup     = 1;
output_speedup    = 1;
internal_speedup  = 1.0;

vc_busy_when_full = 0;

// Traffic
traffic = uniform;
packet_size = 1;

// Simulation
sim_type = throughput;

injection_rate = 0.5;

END Configuration File: ./examples/bitrev
===== Time: 1000 =====
Class 0:
Minimum packet latency = 8
Average packet latency = 167.624
Maximum packet latency = 393
Minimum network latency = 9
Average network latency = 79.2275
Maximum network latency = 227
Slowest packet = 1067
Minimum flit latency = 9
Average flit latency = 79.2275
Maximum flit latency = 227
Slowest flit = 2504
Minimum fragmentation = 0
Average fragmentation = 0
Maximum fragmentation = 0
Minimum injected packet rate = 0.327 (at node 1)
Average injected packet rate = 0.375437
Maximum injected packet rate = 0.405 (at node 12)
Minimum accepted packet rate = 0.312 (at node 14)
Average accepted packet rate = 0.346438
Maximum accepted packet rate = 0.375 (at node 8)
Minimum injected flit rate = 0.327 (at node 1)
Average injected flit rate = 0.375437
Maximum injected flit rate = 0.405 (at node 12)
Minimum accepted flit rate = 0.312 (at node 14)
Average accepted flit rate = 0.346438
Maximum accepted flit rate = 0.375 (at node 8)
Total number of injected packets = 6007
Total number of injected flits = 6007
Average injected packet length = 1
Total number of accepted packets = 5543
Total number of accepted flits = 5543
Average accepted packet length = 1
Total in-flight flits = 478 (0 measured)
===== Time: 2000 =====
Class 0:
Minimum packet latency = 8
Average packet latency = 306.096
Maximum packet latency = 848
Minimum network latency = 9
Average network latency = 82.3969
Maximum network latency = 227
Slowest packet = 1067
Minimum flit latency = 9
Average flit latency = 82.3969
Maximum flit latency = 227
Slowest flit = 2504
Minimum fragmentation = 0
Average fragmentation = 0
Maximum fragmentation = 0
Minimum injected packet rate = 0.304 (at node 1)
Average injected packet rate = 0.36525
Maximum injected packet rate = 0.392 (at node 7)
Minimum accepted packet rate = 0.319 (at node 4)
Average accepted packet rate = 0.349906
Maximum accepted packet rate = 0.372 (at node 7)
Minimum injected flit rate = 0.304 (at node 1)
Average injected flit rate = 0.36525
Maximum injected flit rate = 0.392 (at node 7)
Minimum accepted flit rate = 0.319 (at node 4)
Average accepted flit rate = 0.349906
Maximum accepted flit rate = 0.372 (at node 7)
Total number of injected packets = 11688
Total number of injected flits = 11688
Average injected packet length = 1
Total number of accepted packets = 11197
Total number of accepted flits = 11197
Average accepted packet length = 1
Total in-flight flits = 500 (0 measured)
===== Time: 3000 =====
Class 0:
Minimum packet latency = 401
Average packet latency = 721.202
Maximum packet latency = 1156
Minimum network latency = 38
Average network latency = 84.399
Maximum network latency = 208
Slowest packet = 11443
Minimum flit latency = 38
Average flit latency = 84.399
Maximum flit latency = 208
Slowest flit = 10561
Minimum fragmentation = 0
Average fragmentation = 0
Maximum fragmentation = 0
Minimum injected packet rate = 0.317 (at node 1)
Average injected packet rate = 0.362125
Maximum injected packet rate = 0.391 (at node 11)
Minimum accepted packet rate = 0.324 (at node 13)
Average accepted packet rate = 0.362438
Maximum accepted packet rate = 0.401 (at node 8)
Minimum injected flit rate = 0.317 (at node 1)
Average injected flit rate = 0.362125
Maximum injected flit rate = 0.391 (at node 11)
Minimum accepted flit rate = 0.324 (at node 13)
Average accepted flit rate = 0.362438
Maximum accepted flit rate = 0.401 (at node 8)
Total number of injected packets = 5794
Total number of injected flits = 5794
Average injected packet length = 1
Total number of accepted packets = 5799
Total number of accepted flits = 5799
Average accepted packet length = 1
Total in-flight flits = 498 (0 measured)
===== Time: 4000 =====
Class 0:
Minimum packet latency = 640
Average packet latency = 1020.61
Maximum packet latency = 1546
Minimum network latency = 38
Average network latency = 85.2182
Maximum network latency = 212
Slowest packet = 17495
Minimum flit latency = 38
Average flit latency = 86.2302
Maximum flit latency = 212
Slowest flit = 20981
Minimum fragmentation = 0
Average fragmentation = 0
Maximum fragmentation = 0
Minimum injected packet rate = 0.32 (at node 14)
Average injected packet rate = 0.356063
Maximum injected packet rate = 0.397 (at node 7)
Minimum accepted packet rate = 0.335 (at node 13)
Average accepted packet rate = 0.3565
Maximum accepted packet rate = 0.379 (at node 5)
Minimum injected flit rate = 0.32 (at node 14)
Average injected flit rate = 0.356063
Maximum injected flit rate = 0.397 (at node 7)
Minimum accepted flit rate = 0.335 (at node 13)
Average accepted flit rate = 0.3565
Maximum accepted flit rate = 0.379 (at node 5)
Total number of injected packets = 5697
Total number of injected flits = 5697
Average injected packet length = 1
Total number of accepted packets = 5704
Total number of accepted flits = 5704
Average accepted packet length = 1
Total in-flight flits = 490 (490 measured)
===== Time: 5000 =====
Class 0:
Minimum packet latency = 640
Average packet latency = 1163.65
Maximum packet latency = 1970
Minimum network latency = 37
Average network latency = 85.4682
Maximum network latency = 221
Slowest packet = 17495
Minimum flit latency = 37
Average flit latency = 85.9711
Maximum flit latency = 221
Slowest flit = 22847
Minimum fragmentation = 0
Average fragmentation = 0
Maximum fragmentation = 0
Minimum injected packet rate = 0.3045 (at node 7)
Average injected packet rate = 0.350625
Maximum injected packet rate = 0.3875 (at node 8)
Minimum accepted packet rate = 0.3165 (at node 4)
Average accepted packet rate = 0.350938
Maximum accepted packet rate = 0.3715 (at node 10)
Minimum injected flit rate = 0.3045 (at node 7)
Average injected flit rate = 0.350625
Maximum injected flit rate = 0.3875 (at node 8)
Minimum accepted flit rate = 0.3165 (at node 4)
Average accepted flit rate = 0.350938
Maximum accepted flit rate = 0.3715 (at node 10)
Total number of injected packets = 11220
Total number of injected flits = 11220
Average injected packet length = 1
Total number of accepted packets = 11230
Total number of accepted flits = 11230
Average accepted packet length = 1
Total in-flight flits = 488 (488 measured)
===== Time: 6000 =====
Class 0:
Minimum packet latency = 640
Average packet latency = 1304.66
Maximum packet latency = 2314
Minimum network latency = 37
Average network latency = 85.5564
Maximum network latency = 238
Slowest packet = 17495
Minimum flit latency = 37
Average flit latency = 85.8967
Maximum flit latency = 238
Slowest flit = 31017
Minimum fragmentation = 0
Average fragmentation = 0
Maximum fragmentation = 0
Minimum injected packet rate = 0.203 (at node 7)
Average injected packet rate = 0.342375
Maximum injected packet rate = 0.390333 (at node 12)
Minimum accepted packet rate = 0.313333 (at node 4)
Average accepted packet rate = 0.343104
Maximum accepted packet rate = 0.357 (at node 10)
Minimum injected flit rate = 0.203 (at node 7)
Average injected flit rate = 0.342375
Maximum injected flit rate = 0.390333 (at node 12)
Minimum accepted flit rate = 0.313333 (at node 4)
Average accepted flit rate = 0.343104
Maximum accepted flit rate = 0.357 (at node 10)
Total number of injected packets = 16434
Total number of injected flits = 16434
Average injected packet length = 1
Total number of accepted packets = 16469
Total number of accepted flits = 16469
Average accepted packet length = 1
Total in-flight flits = 461 (461 measured)
Draining remaining packets ...
Class 0:
Remaining flits: 25819 25850 25890 25919 25950 25955 25977 25991 26004 26018 [...] (414 flits)
Measured flits: 25819 25850 25890 25919 25950 25955 25977 25991 26004 26018 [...] (414 flits)
Class 0:
Remaining flits: 25819 25850 25890 25919 25950 25955 25977 25991 26004 26018 [...] (354 flits)
Measured flits: 25819 25850 25890 25919 25950 25955 25977 25991 26004 26018 [...] (354 flits)
Class 0:
Remaining flits: 25819 25850 25890 25919 25950 25955 25977 25991 26004 26018 [...] (304 flits)
Measured flits: 25819 25850 25890 25919 25950 25955 25977 25991 26004 26018 [...] (304 flits)
Class 0:
Remaining flits: 25819 25850 25890 25919 25950 25955 25977 25991 26004 26018 [...] (255 flits)
Measured flits: 25819 25850 25890 25919 25950 25955 25977 25991 26004 26018 [...] (255 flits)
Class 0:
Remaining flits: 25819 25850 25890 25919 25950 25955 25977 25991 26004 26018 [...] (196 flits)
Measured flits: 25819 25850 25890 25919 25950 25955 25977 25991 26004 26018 [...] (196 flits)
Class 0:
Remaining flits: 25819 25850 25890 25919 25950 25955 25977 25991 26004 26018 [...] (148 flits)
Measured flits: 25819 25850 25890 25919 25950 25955 25977 25991 26004 26018 [...] (148 flits)
Class 0:
Remaining flits: 25819 25850 25890 25919 25950 25955 25977 25991 26004 26018 [...] (116 flits)
Measured flits: 25819 25850 25890 25919 25950 25955 25977 25991 26004 26018 [...] (116 flits)
Class 0:
Remaining flits: 25819 25850 25890 25919 25950 25955 25977 25991 26004 26018 [...] (91 flits)
Measured flits: 25819 25850 25890 25919 25950 25955 25977 25991 26004 26018 [...] (91 flits)
Class 0:
Remaining flits: 25819 25850 25890 25919 25950 25955 25977 25991 26004 26018 [...] (72 flits)
Measured flits: 25819 25850 25890 25919 25950 25955 25977 25991 26004 26018 [...] (72 flits)
Class 0:
Remaining flits: 25819 25850 25890 25919 25950 25955 25977 25991 26004 26018 [...] (62 flits)
Measured flits: 25819 25850 25890 25919 25950 25955 25977 25991 26004 26018 [...] (62 flits)
Class 0:
Remaining flits: 25819 25850 25890 25919 25950 25955 25977 25991 26004 26018 [...] (53 flits)
Measured flits: 25819 25850 25890 25919 25950 25955 25977 25991 26004 26018 [...] (53 flits)
Class 0:
Remaining flits: 25819 25850 25890 25919 25950 25955 25977 25991 26004 26018 [...] (52 flits)
Measured flits: 25819 25850 25890 25919 25950 25955 25977 25991 26004 26018 [...] (52 flits)
Class 0:
Remaining flits: 25819 25850 25890 25919 25950 25955 25977 25991 26004 26018 [...] (52 flits)
Measured flits: 25819 25850 25890 25919 25950 25955 25977 25991 26004 26018 [...] (52 flits)
Class 0:
Remaining flits: 25819 25850 25890 25919 25950 25955 25977 25991 26004 26018 [...] (52 flits)
Measured flits: 25819 25850 25890 25919 25950 25955 25977 25991 26004 26018 [...] (52 flits)
Class 0:
Remaining flits: 25819 25850 25890 25919 25950 25955 25977 25991 26004 26018 [...] (52 flits)
Measured flits: 25819 25850 25890 25919 25950 25955 25977 25991 26004 26018 [...] (52 flits)
Class 0:
Remaining flits: 25819 25850 25890 25919 25950 25955 25977 25991 26004 26018 [...] (52 flits)
Measured flits: 25819 25850 25890 25919 25950 25955 25977 25991 26004 26018 [...] (52 flits)
Class 0:
Remaining flits: 25819 25850 25890 25919 25950 25955 25977 25991 26004 26018 [...] (52 flits)
Measured flits: 25819 25850 25890 25919 25950 25955 25977 25991 26004 26018 [...] (52 flits)
Class 0:
Remaining flits: 25819 25850 25890 25919 25950 25955 25977 25991 26004 26018 [...] (52 flits)
Measured flits: 25819 25850 25890 25919 25950 25955 25977 25991 26004 26018 [...] (52 flits)
Class 0:
Remaining flits: 25819 25850 25890 25919 25950 25955 25977 25991 26004 26018 [...] (52 flits)
Measured flits: 25819 25850 25890 25919 25950 25955 25977 25991 26004 26018 [...] (52 flits)
Class 0:
Remaining flits: 25819 25850 25890 25919 25950 25955 25977 25991 26004 26018 [...] (52 flits)
Measured flits: 25819 25850 25890 25919 25950 25955 25977 25991 26004 26018 [...] (52 flits)
Class 0:
Remaining flits: 25819 25850 25890 25919 25950 25955 25977 25991 26004 26018 [...] (52 flits)
Measured flits: 25819 25850 25890 25919 25950 25955 25977 25991 26004 26018 [...] (52 flits)
Class 0:
Remaining flits: 25819 25850 25890 25919 25950 25955 25977 25991 26004 26018 [...] (52 flits)
Measured flits: 25819 25850 25890 25919 25950 25955 25977 25991 26004 26018 [...] (52 flits)
Class 0:
Remaining flits: 25819 25850 25890 25919 25950 25955 25977 25991 26004 26018 [...] (52 flits)
Measured flits: 25819 25850 25890 25919 25950 25955 25977 25991 26004 26018 [...] (52 flits)
Class 0:
Remaining flits: 25819 25850 25890 25919 25950 25955 25977 25991 26004 26018 [...] (52 flits)
Measured flits: 25819 25850 25890 25919 25950 25955 25977 25991 26004 26018 [...] (52 flits)
Class 0:
Remaining flits: 25819 25850 25890 25919 25950 25955 25977 25991 26004 26018 [...] (52 flits)
Measured flits: 25819 25850 25890 25919 25950 25955 25977 25991 26004 26018 [...] (52 flits)
Class 0:
Remaining flits: 25819 25850 25890 25919 25950 25955 25977 25991 26004 26018 [...] (52 flits)
Measured flits: 25819 25850 25890 25919 25950 25955 25977 25991 26004 26018 [...] (52 flits)
Class 0:
Remaining flits: 25819 25850 25890 25919 25950 25955 25977 25991 26004 26018 [...] (52 flits)
Measured flits: 25819 25850 25890 25919 25950 25955 25977 25991 26004 26018 [...] (52 flits)
Class 0:
Remaining flits: 25819 25850 25890 25919 25950 25955 25977 25991 26004 26018 [...] (52 flits)
Measured flits: 25819 25850 25890 25919 25950 25955 25977 25991 26004 26018 [...] (52 flits)
Class 0:
Remaining flits: 25819 25850 25890 25919 25950 25955 25977 25991 26004 26018 [...] (52 flits)
Measured flits: 25819 25850 25890 25919 25950 25955 25977 25991 26004 26018 [...] (52 flits)
Class 0:
Remaining flits: 25819 25850 25890 25919 25950 25955 25977 25991 26004 26018 [...] (52 flits)
Measured flits: 25819 25850 25890 25919 25950 25955 25977 25991 26004 26018 [...] (52 flits)
Class 0:
Remaining flits: 25819 25850 25890 25919 25950 25955 25977 25991 26004 26018 [...] (52 flits)
Measured flits: 25819 25850 25890 25919 25950 25955 25977 25991 26004 26018 [...] (52 flits)
Class 0:
Remaining flits: 25819 25850 25890 25919 25950 25955 25977 25991 26004 26018 [...] (52 flits)
Measured flits: 25819 25850 25890 25919 25950 25955 25977 25991 26004 26018 [...] (52 flits)
Class 0:
Remaining flits: 25819 25850 25890 25919 25950 25955 25977 25991 26004 26018 [...] (52 flits)
Measured flits: 25819 25850 25890 25919 25950 25955 25977 25991 26004 26018 [...] (52 flits)
Class 0:
Remaining flits: 25819 25850 25890 25919 25950 25955 25977 25991 26004 26018 [...] (52 flits)
Measured flits: 25819 25850 25890 25919 25950 25955 25977 25991 26004 26018 [...] (52 flits)
Class 0:
Remaining flits: 25819 25850 25890 25919 25950 25955 25977 25991 26004 26018 [...] (52 flits)
Measured flits: 25819 25850 25890 25919 25950 25955 25977 25991 26004 26018 [...] (52 flits)
Class 0:
Remaining flits: 25819 25850 25890 25919 25950 25955 25977 25991 26004 26018 [...] (52 flits)
Measured flits: 25819 25850 25890 25919 25950 25955 25977 25991 26004 26018 [...] (52 flits)
Class 0:
Remaining flits: 25819 25850 25890 25919 25950 25955 25977 25991 26004 26018 [...] (52 flits)
Measured flits: 25819 25850 25890 25919 25950 25955 25977 25991 26004 26018 [...] (52 flits)
Class 0:
Remaining flits: 25819 25850 25890 25919 25950 25955 25977 25991 26004 26018 [...] (52 flits)
Measured flits: 25819 25850 25890 25919 25950 25955 25977 25991 26004 26018 [...] (52 flits)
Class 0:
Remaining flits: 25819 25850 25890 25919 25950 25955 25977 25991 26004 26018 [...] (52 flits)
Measured flits: 25819 25850 25890 25919 25950 25955 25977 25991 26004 26018 [...] (52 flits)
Class 0:
Remaining flits: 25819 25850 25890 25919 25950 25955 25977 25991 26004 26018 [...] (52 flits)
Measured flits: 25819 25850 25890 25919 25950 25955 25977 25991 26004 26018 [...] (52 flits)
Class 0:
Remaining flits: 25819 25850 25890 25919 25950 25955 25977 25991 26004 26018 [...] (52 flits)
Measured flits: 25819 25850 25890 25919 25950 25955 25977 25991 26004 26018 [...] (52 flits)
Class 0:
Remaining flits: 25819 25850 25890 25919 25950 25955 25977 25991 26004 26018 [...] (52 flits)
Measured flits: 25819 25850 25890 25919 25950 25955 25977 25991 26004 26018 [...] (52 flits)
Class 0:
Remaining flits: 25819 25850 25890 25919 25950 25955 25977 25991 26004 26018 [...] (52 flits)
Measured flits: 25819 25850 25890 25919 25950 25955 25977 25991 26004 26018 [...] (52 flits)
Class 0:
Remaining flits: 25819 25850 25890 25919 25950 25955 25977 25991 26004 26018 [...] (52 flits)
Measured flits: 25819 25850 25890 25919 25950 25955 25977 25991 26004 26018 [...] (52 flits)
Class 0:
Remaining flits: 25819 25850 25890 25919 25950 25955 25977 25991 26004 26018 [...] (52 flits)
Measured flits: 25819 25850 25890 25919 25950 25955 25977 25991 26004 26018 [...] (52 flits)
Class 0:
Remaining flits: 25819 25850 25890 25919 25950 25955 25977 25991 26004 26018 [...] (52 flits)
Measured flits: 25819 25850 25890 25919 25950 25955 25977 25991 26004 26018 [...] (52 flits)
Class 0:
Remaining flits: 25819 25850 25890 25919 25950 25955 25977 25991 26004 26018 [...] (52 flits)
Measured flits: 25819 25850 25890 25919 25950 25955 25977 25991 26004 26018 [...] (52 flits)
Class 0:
Remaining flits: 25819 25850 25890 25919 25950 25955 25977 25991 26004 26018 [...] (52 flits)
Measured flits: 25819 25850 25890 25919 25950 25955 25977 25991 26004 26018 [...] (52 flits)
Class 0:
Remaining flits: 25819 25850 25890 25919 25950 25955 25977 25991 26004 26018 [...] (52 flits)
Measured flits: 25819 25850 25890 25919 25950 25955 25977 25991 26004 26018 [...] (52 flits)
Class 0:
Remaining flits: 25819 25850 25890 25919 25950 25955 25977 25991 26004 26018 [...] (52 flits)
Measured flits: 25819 25850 25890 25919 25950 25955 25977 25991 26004 26018 [...] (52 flits)
Class 0:
Remaining flits: 25819 25850 25890 25919 25950 25955 25977 25991 26004 26018 [...] (52 flits)
Measured flits: 25819 25850 25890 25919 25950 25955 25977 25991 26004 26018 [...] (52 flits)
Class 0:
Remaining flits: 25819 25850 25890 25919 25950 25955 25977 25991 26004 26018 [...] (52 flits)
Measured flits: 25819 25850 25890 25919 25950 25955 25977 25991 26004 26018 [...] (52 flits)
Class 0:
Remaining flits: 25819 25850 25890 25919 25950 25955 25977 25991 26004 26018 [...] (52 flits)
Measured flits: 25819 25850 25890 25919 25950 25955 25977 25991 26004 26018 [...] (52 flits)
Class 0:
Remaining flits: 25819 25850 25890 25919 25950 25955 25977 25991 26004 26018 [...] (52 flits)
Measured flits: 25819 25850 25890 25919 25950 25955 25977 25991 26004 26018 [...] (52 flits)
Class 0:
Remaining flits: 25819 25850 25890 25919 25950 25955 25977 25991 26004 26018 [...] (52 flits)
Measured flits: 25819 25850 25890 25919 25950 25955 25977 25991 26004 26018 [...] (52 flits)
Class 0:
Remaining flits: 25819 25850 25890 25919 25950 25955 25977 25991 26004 26018 [...] (52 flits)
Measured flits: 25819 25850 25890 25919 25950 25955 25977 25991 26004 26018 [...] (52 flits)
Class 0:
Remaining flits: 25819 25850 25890 25919 25950 25955 25977 25991 26004 26018 [...] (52 flits)
Measured flits: 25819 25850 25890 25919 25950 25955 25977 25991 26004 26018 [...] (52 flits)
Class 0:
Remaining flits: 25819 25850 25890 25919 25950 25955 25977 25991 26004 26018 [...] (52 flits)
Measured flits: 25819 25850 25890 25919 25950 25955 25977 25991 26004 26018 [...] (52 flits)
Class 0:
Remaining flits: 25819 25850 25890 25919 25950 25955 25977 25991 26004 26018 [...] (52 flits)
Measured flits: 25819 25850 25890 25919 25950 25955 25977 25991 26004 26018 [...] (52 flits)
Class 0:
Remaining flits: 25819 25850 25890 25919 25950 25955 25977 25991 26004 26018 [...] (52 flits)
Measured flits: 25819 25850 25890 25919 25950 25955 25977 25991 26004 26018 [...] (52 flits)
Class 0:
Remaining flits: 25819 25850 25890 25919 25950 25955 25977 25991 26004 26018 [...] (52 flits)
Measured flits: 25819 25850 25890 25919 25950 25955 25977 25991 26004 26018 [...] (52 flits)
Class 0:
Remaining flits: 25819 25850 25890 25919 25950 25955 25977 25991 26004 26018 [...] (52 flits)
Measured flits: 25819 25850 25890 25919 25950 25955 25977 25991 26004 26018 [...] (52 flits)
Class 0:
Remaining flits: 25819 25850 25890 25919 25950 25955 25977 25991 26004 26018 [...] (52 flits)
Measured flits: 25819 25850 25890 25919 25950 25955 25977 25991 26004 26018 [...] (52 flits)
Class 0:
Remaining flits: 25819 25850 25890 25919 25950 25955 25977 25991 26004 26018 [...] (52 flits)
Measured flits: 25819 25850 25890 25919 25950 25955 25977 25991 26004 26018 [...] (52 flits)
Class 0:
Remaining flits: 25819 25850 25890 25919 25950 25955 25977 25991 26004 26018 [...] (52 flits)
Measured flits: 25819 25850 25890 25919 25950 25955 25977 25991 26004 26018 [...] (52 flits)
Class 0:
Remaining flits: 25819 25850 25890 25919 25950 25955 25977 25991 26004 26018 [...] (52 flits)
Measured flits: 25819 25850 25890 25919 25950 25955 25977 25991 26004 26018 [...] (52 flits)
Class 0:
Remaining flits: 25819 25850 25890 25919 25950 25955 25977 25991 26004 26018 [...] (52 flits)
Measured flits: 25819 25850 25890 25919 25950 25955 25977 25991 26004 26018 [...] (52 flits)
Class 0:
Remaining flits: 25819 25850 25890 25919 25950 25955 25977 25991 26004 26018 [...] (52 flits)
Measured flits: 25819 25850 25890 25919 25950 25955 25977 25991 26004 26018 [...] (52 flits)
Class 0:
Remaining flits: 25819 25850 25890 25919 25950 25955 25977 25991 26004 26018 [...] (52 flits)
Measured flits: 25819 25850 25890 25919 25950 25955 25977 25991 26004 26018 [...] (52 flits)
Class 0:
Remaining flits: 25819 25850 25890 25919 25950 25955 25977 25991 26004 26018 [...] (52 flits)
Measured flits: 25819 25850 25890 25919 25950 25955 25977 25991 26004 26018 [...] (52 flits)
Class 0:
Remaining flits: 25819 25850 25890 25919 25950 25955 25977 25991 26004 26018 [...] (52 flits)
Measured flits: 25819 25850 25890 25919 25950 25955 25977 25991 26004 26018 [...] (52 flits)
Class 0:
Remaining flits: 25819 25850 25890 25919 25950 25955 25977 25991 26004 26018 [...] (52 flits)
Measured flits: 25819 25850 25890 25919 25950 25955 25977 25991 26004 26018 [...] (52 flits)
Class 0:
Remaining flits: 25819 25850 25890 25919 25950 25955 25977 25991 26004 26018 [...] (52 flits)
Measured flits: 25819 25850 25890 25919 25950 25955 25977 25991 26004 26018 [...] (52 flits)
Class 0:
Remaining flits: 25819 25850 25890 25919 25950 25955 25977 25991 26004 26018 [...] (52 flits)
Measured flits: 25819 25850 25890 25919 25950 25955 25977 25991 26004 26018 [...] (52 flits)
Class 0:
Remaining flits: 25819 25850 25890 25919 25950 25955 25977 25991 26004 26018 [...] (52 flits)
Measured flits: 25819 25850 25890 25919 25950 25955 25977 25991 26004 26018 [...] (52 flits)
Class 0:
Remaining flits: 25819 25850 25890 25919 25950 25955 25977 25991 26004 26018 [...] (52 flits)
Measured flits: 25819 25850 25890 25919 25950 25955 25977 25991 26004 26018 [...] (52 flits)
Class 0:
Remaining flits: 25819 25850 25890 25919 25950 25955 25977 25991 26004 26018 [...] (52 flits)
Measured flits: 25819 25850 25890 25919 25950 25955 25977 25991 26004 26018 [...] (52 flits)
Class 0:
Remaining flits: 25819 25850 25890 25919 25950 25955 25977 25991 26004 26018 [...] (52 flits)
Measured flits: 25819 25850 25890 25919 25950 25955 25977 25991 26004 26018 [...] (52 flits)
Class 0:
Remaining flits: 25819 25850 25890 25919 25950 25955 25977 25991 26004 26018 [...] (52 flits)
Measured flits: 25819 25850 25890 25919 25950 25955 25977 25991 26004 26018 [...] (52 flits)
Class 0:
Remaining flits: 25819 25850 25890 25919 25950 25955 25977 25991 26004 26018 [...] (52 flits)
Measured flits: 25819 25850 25890 25919 25950 25955 25977 25991 26004 26018 [...] (52 flits)
Class 0:
Remaining flits: 25819 25850 25890 25919 25950 25955 25977 25991 26004 26018 [...] (52 flits)
Measured flits: 25819 25850 25890 25919 25950 25955 25977 25991 26004 26018 [...] (52 flits)
Class 0:
Remaining flits: 25819 25850 25890 25919 25950 25955 25977 25991 26004 26018 [...] (52 flits)
Measured flits: 25819 25850 25890 25919 25950 25955 25977 25991 26004 26018 [...] (52 flits)
Class 0:
Remaining flits: 25819 25850 25890 25919 25950 25955 25977 25991 26004 26018 [...] (52 flits)
Measured flits: 25819 25850 25890 25919 25950 25955 25977 25991 26004 26018 [...] (52 flits)
Class 0:
Remaining flits: 25819 25850 25890 25919 25950 25955 25977 25991 26004 26018 [...] (52 flits)
Measured flits: 25819 25850 25890 25919 25950 25955 25977 25991 26004 26018 [...] (52 flits)
Class 0:
Remaining flits: 25819 25850 25890 25919 25950 25955 25977 25991 26004 26018 [...] (52 flits)
Measured flits: 25819 25850 25890 25919 25950 25955 25977 25991 26004 26018 [...] (52 flits)
Class 0:
Remaining flits: 25819 25850 25890 25919 25950 25955 25977 25991 26004 26018 [...] (52 flits)
Measured flits: 25819 25850 25890 25919 25950 25955 25977 25991 26004 26018 [...] (52 flits)
Class 0:
Remaining flits: 25819 25850 25890 25919 25950 25955 25977 25991 26004 26018 [...] (52 flits)
Measured flits: 25819 25850 25890 25919 25950 25955 25977 25991 26004 26018 [...] (52 flits)
Class 0:
Remaining flits: 25819 25850 25890 25919 25950 25955 25977 25991 26004 26018 [...] (52 flits)
Measured flits: 25819 25850 25890 25919 25950 25955 25977 25991 26004 26018 [...] (52 flits)
Class 0:
Remaining flits: 25819 25850 25890 25919 25950 25955 25977 25991 26004 26018 [...] (52 flits)
Measured flits: 25819 25850 25890 25919 25950 25955 25977 25991 26004 26018 [...] (52 flits)
Class 0:
Remaining flits: 25819 25850 25890 25919 25950 25955 25977 25991 26004 26018 [...] (52 flits)
Measured flits: 25819 25850 25890 25919 25950 25955 25977 25991 26004 26018 [...] (52 flits)
Class 0:
Remaining flits: 25819 25850 25890 25919 25950 25955 25977 25991 26004 26018 [...] (52 flits)
Measured flits: 25819 25850 25890 25919 25950 25955 25977 25991 26004 26018 [...] (52 flits)
Class 0:
Remaining flits: 25819 25850 25890 25919 25950 25955 25977 25991 26004 26018 [...] (52 flits)
Measured flits: 25819 25850 25890 25919 25950 25955 25977 25991 26004 26018 [...] (52 flits)
Class 0:
Remaining flits: 25819 25850 25890 25919 25950 25955 25977 25991 26004 26018 [...] (52 flits)
Measured flits: 25819 25850 25890 25919 25950 25955 25977 25991 26004 26018 [...] (52 flits)
Class 0:
Remaining flits: 25819 25850 25890 25919 25950 25955 25977 25991 26004 26018 [...] (52 flits)
Measured flits: 25819 25850 25890 25919 25950 25955 25977 25991 26004 26018 [...] (52 flits)
Class 0:
Remaining flits: 25819 25850 25890 25919 25950 25955 25977 25991 26004 26018 [...] (52 flits)
Measured flits: 25819 25850 25890 25919 25950 25955 25977 25991 26004 26018 [...] (52 flits)
Class 0:
Remaining flits: 25819 25850 25890 25919 25950 25955 25977 25991 26004 26018 [...] (52 flits)
Measured flits: 25819 25850 25890 25919 25950 25955 25977 25991 26004 26018 [...] (52 flits)
Class 0:
Remaining flits: 25819 25850 25890 25919 25950 25955 25977 25991 26004 26018 [...] (52 flits)
Measured flits: 25819 25850 25890 25919 25950 25955 25977 25991 26004 26018 [...] (52 flits)
Class 0:
Remaining flits: 25819 25850 25890 25919 25950 25955 25977 25991 26004 26018 [...] (52 flits)
Measured flits: 25819 25850 25890 25919 25950 25955 25977 25991 26004 26018 [...] (52 flits)
Class 0:
Remaining flits: 25819 25850 25890 25919 25950 25955 25977 25991 26004 26018 [...] (52 flits)
Measured flits: 25819 25850 25890 25919 25950 25955 25977 25991 26004 26018 [...] (52 flits)
Class 0:
Remaining flits: 25819 25850 25890 25919 25950 25955 25977 25991 26004 26018 [...] (52 flits)
Measured flits: 25819 25850 25890 25919 25950 25955 25977 25991 26004 26018 [...] (52 flits)
Class 0:
Remaining flits: 25819 25850 25890 25919 25950 25955 25977 25991 26004 26018 [...] (52 flits)
Measured flits: 25819 25850 25890 25919 25950 25955 25977 25991 26004 26018 [...] (52 flits)
Time taken is 7000 cycles
====== Traffic class 0 ======

Total number of flits generated = 33926, changed lanes = 33188
Overall minimum packet latency = 640 (1 samples)
Overall average packet latency = 1315.76 (1 samples)
Overall maximum packet latency = 2344 (1 samples)
Overall minimum network latency = 37 (1 samples)
Overall average network latency = 85.4918 (1 samples)
Overall maximum network latency = 238 (1 samples)
Overall minimum flit latency = 37 (1 samples)
Overall average flit latency = 85.8257 (1 samples)
Overall maximum flit latency = 238 (1 samples)
Overall minimum fragmentation = 0 (1 samples)
Overall average fragmentation = 0 (1 samples)
Overall maximum fragmentation = 0 (1 samples)
Overall minimum injected packet rate = 0.203 (1 samples)
Overall average injected packet rate = 0.342375 (1 samples)
Overall maximum injected packet rate = 0.390333 (1 samples)
Overall minimum accepted packet rate = 0.313333 (1 samples)
Overall average accepted packet rate = 0.343104 (1 samples)
Overall maximum accepted packet rate = 0.357 (1 samples)
Overall minimum injected flit rate = 0.203 (1 samples)
Overall average injected flit rate = 0.342375 (1 samples)
Overall maximum injected flit rate = 0.390333 (1 samples)
Overall minimum accepted flit rate = 0.313333 (1 samples)
Overall average accepted flit rate = 0.343104 (1 samples)
Overall maximum accepted flit rate = 0.357 (1 samples)
Overall average injected packet size = 1 (1 samples)
Overall average accepted packet size = 1 (1 samples)
Overall average hops = 3.50665 (1 samples)
Overall throughput of the network (flits/cycle) = 11.2913
Overall throughput of the network (packets/cycle) = 11.2913
Total run time 13050.3
