make: Nothing to be done for `all'.
Master: Running timer....
Master: Running SRC....
BEGIN Configuration File: ./examples/bitrev
// Topology

topology = mesh;
k = 4;
n = 2;

// Routing
routing_function = dor;

// Flow control
num_vcs     = 4;
vc_buf_size = 4;
wait_for_tail_credit = 0;

// Router architecture
vc_allocator = islip;
sw_allocator = islip;
alloc_iters  = 1;

credit_delay   = 1;
routing_delay  = 1;
vc_alloc_delay = 1;
sw_alloc_delay = 1;

input_speedup     = 1;
output_speedup    = 1;
internal_speedup  = 1.0;

vc_busy_when_full = 0;

// Traffic
traffic = uniform;
packet_size = 1;

// Simulation
sim_type = throughput;

injection_rate = 0.33;

END Configuration File: ./examples/bitrev
===== Time: 1000 =====
Class 0:
Minimum packet latency = 7
Average packet latency = 39.9674
Maximum packet latency = 124
Minimum network latency = 8
Average network latency = 40.9336
Maximum network latency = 125
Slowest packet = 2206
Minimum flit latency = 8
Average flit latency = 40.9336
Maximum flit latency = 125
Slowest flit = 2206
Minimum fragmentation = 0
Average fragmentation = 0
Maximum fragmentation = 0
Minimum injected packet rate = 0.309 (at node 14)
Average injected packet rate = 0.327625
Maximum injected packet rate = 0.348 (at node 10)
Minimum accepted packet rate = 0.284 (at node 4)
Average accepted packet rate = 0.3125
Maximum accepted packet rate = 0.337 (at node 15)
Minimum injected flit rate = 0.309 (at node 14)
Average injected flit rate = 0.327625
Maximum injected flit rate = 0.348 (at node 10)
Minimum accepted flit rate = 0.284 (at node 4)
Average accepted flit rate = 0.3125
Maximum accepted flit rate = 0.337 (at node 15)
Total number of injected packets = 5242
Total number of injected flits = 5242
Average injected packet length = 1
Total number of accepted packets = 5000
Total number of accepted flits = 5000
Average accepted packet length = 1
Total in-flight flits = 242 (0 measured)
===== Time: 2000 =====
Class 0:
Minimum packet latency = 7
Average packet latency = 43.7209
Maximum packet latency = 198
Minimum network latency = 8
Average network latency = 43.5542
Maximum network latency = 172
Slowest packet = 6195
Minimum flit latency = 8
Average flit latency = 43.5542
Maximum flit latency = 172
Slowest flit = 6575
Minimum fragmentation = 0
Average fragmentation = 0
Maximum fragmentation = 0
Minimum injected packet rate = 0.313 (at node 7)
Average injected packet rate = 0.325813
Maximum injected packet rate = 0.339 (at node 10)
Minimum accepted packet rate = 0.282 (at node 4)
Average accepted packet rate = 0.317969
Maximum accepted packet rate = 0.338 (at node 8)
Minimum injected flit rate = 0.313 (at node 7)
Average injected flit rate = 0.325813
Maximum injected flit rate = 0.339 (at node 10)
Minimum accepted flit rate = 0.282 (at node 4)
Average accepted flit rate = 0.317969
Maximum accepted flit rate = 0.338 (at node 8)
Total number of injected packets = 10426
Total number of injected flits = 10426
Average injected packet length = 1
Total number of accepted packets = 10175
Total number of accepted flits = 10175
Average accepted packet length = 1
Total in-flight flits = 251 (0 measured)
===== Time: 3000 =====
Class 0:
Minimum packet latency = 7
Average packet latency = 50.3141
Maximum packet latency = 205
Minimum network latency = 8
Average network latency = 47.119
Maximum network latency = 141
Slowest packet = 9997
Minimum flit latency = 8
Average flit latency = 47.119
Maximum flit latency = 141
Slowest flit = 12197
Minimum fragmentation = 0
Average fragmentation = 0
Maximum fragmentation = 0
Minimum injected packet rate = 0.293 (at node 8)
Average injected packet rate = 0.329625
Maximum injected packet rate = 0.349 (at node 6)
Minimum accepted packet rate = 0.293 (at node 5)
Average accepted packet rate = 0.32875
Maximum accepted packet rate = 0.362 (at node 11)
Minimum injected flit rate = 0.293 (at node 8)
Average injected flit rate = 0.329625
Maximum injected flit rate = 0.349 (at node 6)
Minimum accepted flit rate = 0.293 (at node 5)
Average accepted flit rate = 0.32875
Maximum accepted flit rate = 0.362 (at node 11)
Total number of injected packets = 5274
Total number of injected flits = 5274
Average injected packet length = 1
Total number of accepted packets = 5260
Total number of accepted flits = 5260
Average accepted packet length = 1
Total in-flight flits = 267 (0 measured)
===== Time: 4000 =====
Class 0:
Minimum packet latency = 7
Average packet latency = 56.2439
Maximum packet latency = 253
Minimum network latency = 8
Average network latency = 49.9075
Maximum network latency = 176
Slowest packet = 15768
Minimum flit latency = 8
Average flit latency = 50.3883
Maximum flit latency = 176
Slowest flit = 17920
Minimum fragmentation = 0
Average fragmentation = 0
Maximum fragmentation = 0
Minimum injected packet rate = 0.314 (at node 5)
Average injected packet rate = 0.330688
Maximum injected packet rate = 0.363 (at node 6)
Minimum accepted packet rate = 0.298 (at node 13)
Average accepted packet rate = 0.332375
Maximum accepted packet rate = 0.353 (at node 5)
Minimum injected flit rate = 0.314 (at node 5)
Average injected flit rate = 0.330688
Maximum injected flit rate = 0.363 (at node 6)
Minimum accepted flit rate = 0.298 (at node 13)
Average accepted flit rate = 0.332375
Maximum accepted flit rate = 0.353 (at node 5)
Total number of injected packets = 5291
Total number of injected flits = 5291
Average injected packet length = 1
Total number of accepted packets = 5318
Total number of accepted flits = 5318
Average accepted packet length = 1
Total in-flight flits = 238 (238 measured)
===== Time: 5000 =====
Class 0:
Minimum packet latency = 7
Average packet latency = 54.3777
Maximum packet latency = 253
Minimum network latency = 8
Average network latency = 48.1885
Maximum network latency = 176
Slowest packet = 15768
Minimum flit latency = 8
Average flit latency = 48.4746
Maximum flit latency = 176
Slowest flit = 17920
Minimum fragmentation = 0
Average fragmentation = 0
Maximum fragmentation = 0
Minimum injected packet rate = 0.316 (at node 5)
Average injected packet rate = 0.328313
Maximum injected packet rate = 0.3405 (at node 13)
Minimum accepted packet rate = 0.301 (at node 4)
Average accepted packet rate = 0.329406
Maximum accepted packet rate = 0.346 (at node 9)
Minimum injected flit rate = 0.316 (at node 5)
Average injected flit rate = 0.328313
Maximum injected flit rate = 0.3405 (at node 13)
Minimum accepted flit rate = 0.301 (at node 4)
Average accepted flit rate = 0.329406
Maximum accepted flit rate = 0.346 (at node 9)
Total number of injected packets = 10506
Total number of injected flits = 10506
Average injected packet length = 1
Total number of accepted packets = 10541
Total number of accepted flits = 10541
Average accepted packet length = 1
Total in-flight flits = 231 (231 measured)
===== Time: 6000 =====
Class 0:
Minimum packet latency = 7
Average packet latency = 54.592
Maximum packet latency = 302
Minimum network latency = 8
Average network latency = 47.6962
Maximum network latency = 176
Slowest packet = 15768
Minimum flit latency = 8
Average flit latency = 47.8949
Maximum flit latency = 176
Slowest flit = 17920
Minimum fragmentation = 0
Average fragmentation = 0
Maximum fragmentation = 0
Minimum injected packet rate = 0.318 (at node 1)
Average injected packet rate = 0.329125
Maximum injected packet rate = 0.345333 (at node 13)
Minimum accepted packet rate = 0.298667 (at node 4)
Average accepted packet rate = 0.329896
Maximum accepted packet rate = 0.344 (at node 9)
Minimum injected flit rate = 0.318 (at node 1)
Average injected flit rate = 0.329125
Maximum injected flit rate = 0.345333 (at node 13)
Minimum accepted flit rate = 0.298667 (at node 4)
Average accepted flit rate = 0.329896
Maximum accepted flit rate = 0.344 (at node 9)
Total number of injected packets = 15798
Total number of injected flits = 15798
Average injected packet length = 1
Total number of accepted packets = 15835
Total number of accepted flits = 15835
Average accepted packet length = 1
Total in-flight flits = 229 (229 measured)
Draining remaining packets ...
Class 0:
Remaining flits: 31033 31102 31132 31168 31169 31185 31191 31194 31195 31199 [...] (188 flits)
Measured flits: 31033 31102 31132 31168 31169 31185 31191 31194 31195 31199 [...] (188 flits)
Class 0:
Remaining flits: 31132 31191 31195 31199 31212 31221 31241 31264 31266 31270 [...] (139 flits)
Measured flits: 31132 31191 31195 31199 31212 31221 31241 31264 31266 31270 [...] (139 flits)
Class 0:
Remaining flits: 31191 31264 31266 31270 31282 31302 31312 31317 31322 31324 [...] (84 flits)
Measured flits: 31191 31264 31266 31270 31282 31302 31312 31317 31322 31324 [...] (84 flits)
Class 0:
Remaining flits: 31270 31282 31317 31324 31346 31355 31370 31375 31382 31394 [...] (55 flits)
Measured flits: 31270 31282 31317 31324 31346 31355 31370 31375 31382 31394 [...] (55 flits)
Class 0:
Remaining flits: 31370 31375 31382 31394 31407 31410 31411 31414 31421 31429 [...] (29 flits)
Measured flits: 31370 31375 31382 31394 31407 31410 31411 31414 31421 31429 [...] (29 flits)
Class 0:
Remaining flits: 31370 31410 31414 31429 31442 31455 31470 31471 31481 31483 [...] (14 flits)
Measured flits: 31370 31410 31414 31429 31442 31455 31470 31471 31481 31483 [...] (14 flits)
Class 0:
Remaining flits: 31410 31442 31470 31471 31483 31490 31491 31494 31495 (9 flits)
Measured flits: 31410 31442 31470 31471 31483 31490 31491 31494 31495 (9 flits)
Class 0:
Remaining flits: 31470 31471 31490 31491 (4 flits)
Measured flits: 31470 31471 31490 31491 (4 flits)
Class 0:
Remaining flits: 31470 31471 31490 31491 (4 flits)
Measured flits: 31470 31471 31490 31491 (4 flits)
Class 0:
Remaining flits: 31470 31471 31490 31491 (4 flits)
Measured flits: 31470 31471 31490 31491 (4 flits)
Class 0:
Remaining flits: 31470 31471 31490 31491 (4 flits)
Measured flits: 31470 31471 31490 31491 (4 flits)
Class 0:
Remaining flits: 31470 31471 31490 31491 (4 flits)
Measured flits: 31470 31471 31490 31491 (4 flits)
Class 0:
Remaining flits: 31470 31471 31490 31491 (4 flits)
Measured flits: 31470 31471 31490 31491 (4 flits)
Class 0:
Remaining flits: 31470 31471 31490 31491 (4 flits)
Measured flits: 31470 31471 31490 31491 (4 flits)
Class 0:
Remaining flits: 31470 31471 31490 31491 (4 flits)
Measured flits: 31470 31471 31490 31491 (4 flits)
Class 0:
Remaining flits: 31470 31471 31490 31491 (4 flits)
Measured flits: 31470 31471 31490 31491 (4 flits)
Class 0:
Remaining flits: 31470 31471 31490 31491 (4 flits)
Measured flits: 31470 31471 31490 31491 (4 flits)
Class 0:
Remaining flits: 31470 31471 31490 31491 (4 flits)
Measured flits: 31470 31471 31490 31491 (4 flits)
Class 0:
Remaining flits: 31470 31471 31490 31491 (4 flits)
Measured flits: 31470 31471 31490 31491 (4 flits)
Class 0:
Remaining flits: 31470 31471 31490 31491 (4 flits)
Measured flits: 31470 31471 31490 31491 (4 flits)
Class 0:
Remaining flits: 31470 31471 31490 31491 (4 flits)
Measured flits: 31470 31471 31490 31491 (4 flits)
Class 0:
Remaining flits: 31470 31471 31490 31491 (4 flits)
Measured flits: 31470 31471 31490 31491 (4 flits)
Class 0:
Remaining flits: 31470 31471 31490 31491 (4 flits)
Measured flits: 31470 31471 31490 31491 (4 flits)
Class 0:
Remaining flits: 31470 31471 31490 31491 (4 flits)
Measured flits: 31470 31471 31490 31491 (4 flits)
Class 0:
Remaining flits: 31470 31471 31490 31491 (4 flits)
Measured flits: 31470 31471 31490 31491 (4 flits)
Class 0:
Remaining flits: 31470 31471 31490 31491 (4 flits)
Measured flits: 31470 31471 31490 31491 (4 flits)
Class 0:
Remaining flits: 31470 31471 31490 31491 (4 flits)
Measured flits: 31470 31471 31490 31491 (4 flits)
Class 0:
Remaining flits: 31470 31471 31490 31491 (4 flits)
Measured flits: 31470 31471 31490 31491 (4 flits)
Class 0:
Remaining flits: 31470 31471 31490 31491 (4 flits)
Measured flits: 31470 31471 31490 31491 (4 flits)
Class 0:
Remaining flits: 31470 31471 31490 31491 (4 flits)
Measured flits: 31470 31471 31490 31491 (4 flits)
Class 0:
Remaining flits: 31470 31471 31490 31491 (4 flits)
Measured flits: 31470 31471 31490 31491 (4 flits)
Class 0:
Remaining flits: 31470 31471 31490 31491 (4 flits)
Measured flits: 31470 31471 31490 31491 (4 flits)
Class 0:
Remaining flits: 31470 31471 31490 31491 (4 flits)
Measured flits: 31470 31471 31490 31491 (4 flits)
Class 0:
Remaining flits: 31470 31471 31490 31491 (4 flits)
Measured flits: 31470 31471 31490 31491 (4 flits)
Class 0:
Remaining flits: 31470 31471 31490 31491 (4 flits)
Measured flits: 31470 31471 31490 31491 (4 flits)
Class 0:
Remaining flits: 31470 31471 31490 31491 (4 flits)
Measured flits: 31470 31471 31490 31491 (4 flits)
Class 0:
Remaining flits: 31470 31471 31490 31491 (4 flits)
Measured flits: 31470 31471 31490 31491 (4 flits)
Class 0:
Remaining flits: 31470 31471 31490 31491 (4 flits)
Measured flits: 31470 31471 31490 31491 (4 flits)
Class 0:
Remaining flits: 31470 31471 31490 31491 (4 flits)
Measured flits: 31470 31471 31490 31491 (4 flits)
Class 0:
Remaining flits: 31470 31471 31490 31491 (4 flits)
Measured flits: 31470 31471 31490 31491 (4 flits)
Class 0:
Remaining flits: 31470 31471 31490 31491 (4 flits)
Measured flits: 31470 31471 31490 31491 (4 flits)
Class 0:
Remaining flits: 31470 31471 31490 31491 (4 flits)
Measured flits: 31470 31471 31490 31491 (4 flits)
Class 0:
Remaining flits: 31470 31471 31490 31491 (4 flits)
Measured flits: 31470 31471 31490 31491 (4 flits)
Class 0:
Remaining flits: 31470 31471 31490 31491 (4 flits)
Measured flits: 31470 31471 31490 31491 (4 flits)
Class 0:
Remaining flits: 31470 31471 31490 31491 (4 flits)
Measured flits: 31470 31471 31490 31491 (4 flits)
Class 0:
Remaining flits: 31470 31471 31490 31491 (4 flits)
Measured flits: 31470 31471 31490 31491 (4 flits)
Class 0:
Remaining flits: 31470 31471 31490 31491 (4 flits)
Measured flits: 31470 31471 31490 31491 (4 flits)
Class 0:
Remaining flits: 31470 31471 31490 31491 (4 flits)
Measured flits: 31470 31471 31490 31491 (4 flits)
Class 0:
Remaining flits: 31470 31471 31490 31491 (4 flits)
Measured flits: 31470 31471 31490 31491 (4 flits)
Class 0:
Remaining flits: 31470 31471 31490 31491 (4 flits)
Measured flits: 31470 31471 31490 31491 (4 flits)
Class 0:
Remaining flits: 31470 31471 31490 31491 (4 flits)
Measured flits: 31470 31471 31490 31491 (4 flits)
Class 0:
Remaining flits: 31470 31471 31490 31491 (4 flits)
Measured flits: 31470 31471 31490 31491 (4 flits)
Class 0:
Remaining flits: 31470 31471 31490 31491 (4 flits)
Measured flits: 31470 31471 31490 31491 (4 flits)
Class 0:
Remaining flits: 31470 31471 31490 31491 (4 flits)
Measured flits: 31470 31471 31490 31491 (4 flits)
Class 0:
Remaining flits: 31470 31471 31490 31491 (4 flits)
Measured flits: 31470 31471 31490 31491 (4 flits)
Class 0:
Remaining flits: 31470 31471 31490 31491 (4 flits)
Measured flits: 31470 31471 31490 31491 (4 flits)
Class 0:
Remaining flits: 31470 31471 31490 31491 (4 flits)
Measured flits: 31470 31471 31490 31491 (4 flits)
Class 0:
Remaining flits: 31470 31471 31490 31491 (4 flits)
Measured flits: 31470 31471 31490 31491 (4 flits)
Class 0:
Remaining flits: 31470 31471 31490 31491 (4 flits)
Measured flits: 31470 31471 31490 31491 (4 flits)
Class 0:
Remaining flits: 31470 31471 31490 31491 (4 flits)
Measured flits: 31470 31471 31490 31491 (4 flits)
Class 0:
Remaining flits: 31470 31471 31490 31491 (4 flits)
Measured flits: 31470 31471 31490 31491 (4 flits)
Class 0:
Remaining flits: 31470 31471 31490 31491 (4 flits)
Measured flits: 31470 31471 31490 31491 (4 flits)
Class 0:
Remaining flits: 31470 31471 31490 31491 (4 flits)
Measured flits: 31470 31471 31490 31491 (4 flits)
Class 0:
Remaining flits: 31470 31471 31490 31491 (4 flits)
Measured flits: 31470 31471 31490 31491 (4 flits)
Class 0:
Remaining flits: 31470 31471 31490 31491 (4 flits)
Measured flits: 31470 31471 31490 31491 (4 flits)
Class 0:
Remaining flits: 31470 31471 31490 31491 (4 flits)
Measured flits: 31470 31471 31490 31491 (4 flits)
Class 0:
Remaining flits: 31470 31471 31490 31491 (4 flits)
Measured flits: 31470 31471 31490 31491 (4 flits)
Class 0:
Remaining flits: 31470 31471 31490 31491 (4 flits)
Measured flits: 31470 31471 31490 31491 (4 flits)
Class 0:
Remaining flits: 31470 31471 31490 31491 (4 flits)
Measured flits: 31470 31471 31490 31491 (4 flits)
Class 0:
Remaining flits: 31470 31471 31490 31491 (4 flits)
Measured flits: 31470 31471 31490 31491 (4 flits)
Class 0:
Remaining flits: 31470 31471 31490 31491 (4 flits)
Measured flits: 31470 31471 31490 31491 (4 flits)
Class 0:
Remaining flits: 31470 31471 31490 31491 (4 flits)
Measured flits: 31470 31471 31490 31491 (4 flits)
Class 0:
Remaining flits: 31470 31471 31490 31491 (4 flits)
Measured flits: 31470 31471 31490 31491 (4 flits)
Class 0:
Remaining flits: 31470 31471 31490 31491 (4 flits)
Measured flits: 31470 31471 31490 31491 (4 flits)
Class 0:
Remaining flits: 31470 31471 31490 31491 (4 flits)
Measured flits: 31470 31471 31490 31491 (4 flits)
Class 0:
Remaining flits: 31470 31471 31490 31491 (4 flits)
Measured flits: 31470 31471 31490 31491 (4 flits)
Class 0:
Remaining flits: 31470 31471 31490 31491 (4 flits)
Measured flits: 31470 31471 31490 31491 (4 flits)
Class 0:
Remaining flits: 31470 31471 31490 31491 (4 flits)
Measured flits: 31470 31471 31490 31491 (4 flits)
Class 0:
Remaining flits: 31470 31471 31490 31491 (4 flits)
Measured flits: 31470 31471 31490 31491 (4 flits)
Class 0:
Remaining flits: 31470 31471 31490 31491 (4 flits)
Measured flits: 31470 31471 31490 31491 (4 flits)
Class 0:
Remaining flits: 31470 31471 31490 31491 (4 flits)
Measured flits: 31470 31471 31490 31491 (4 flits)
Class 0:
Remaining flits: 31470 31471 31490 31491 (4 flits)
Measured flits: 31470 31471 31490 31491 (4 flits)
Class 0:
Remaining flits: 31470 31471 31490 31491 (4 flits)
Measured flits: 31470 31471 31490 31491 (4 flits)
Class 0:
Remaining flits: 31470 31471 31490 31491 (4 flits)
Measured flits: 31470 31471 31490 31491 (4 flits)
Class 0:
Remaining flits: 31470 31471 31490 31491 (4 flits)
Measured flits: 31470 31471 31490 31491 (4 flits)
Class 0:
Remaining flits: 31470 31471 31490 31491 (4 flits)
Measured flits: 31470 31471 31490 31491 (4 flits)
Class 0:
Remaining flits: 31470 31471 31490 31491 (4 flits)
Measured flits: 31470 31471 31490 31491 (4 flits)
Class 0:
Remaining flits: 31470 31471 31490 31491 (4 flits)
Measured flits: 31470 31471 31490 31491 (4 flits)
Class 0:
Remaining flits: 31470 31471 31490 31491 (4 flits)
Measured flits: 31470 31471 31490 31491 (4 flits)
Class 0:
Remaining flits: 31470 31471 31490 31491 (4 flits)
Measured flits: 31470 31471 31490 31491 (4 flits)
Class 0:
Remaining flits: 31470 31471 31490 31491 (4 flits)
Measured flits: 31470 31471 31490 31491 (4 flits)
Class 0:
Remaining flits: 31470 31471 31490 31491 (4 flits)
Measured flits: 31470 31471 31490 31491 (4 flits)
Class 0:
Remaining flits: 31470 31471 31490 31491 (4 flits)
Measured flits: 31470 31471 31490 31491 (4 flits)
Class 0:
Remaining flits: 31470 31471 31490 31491 (4 flits)
Measured flits: 31470 31471 31490 31491 (4 flits)
Class 0:
Remaining flits: 31470 31471 31490 31491 (4 flits)
Measured flits: 31470 31471 31490 31491 (4 flits)
Class 0:
Remaining flits: 31470 31471 31490 31491 (4 flits)
Measured flits: 31470 31471 31490 31491 (4 flits)
Class 0:
Remaining flits: 31470 31471 31490 31491 (4 flits)
Measured flits: 31470 31471 31490 31491 (4 flits)
Class 0:
Remaining flits: 31470 31471 31490 31491 (4 flits)
Measured flits: 31470 31471 31490 31491 (4 flits)
Class 0:
Remaining flits: 31470 31471 31490 31491 (4 flits)
Measured flits: 31470 31471 31490 31491 (4 flits)
Class 0:
Remaining flits: 31470 31471 31490 31491 (4 flits)
Measured flits: 31470 31471 31490 31491 (4 flits)
Class 0:
Remaining flits: 31470 31471 31490 31491 (4 flits)
Measured flits: 31470 31471 31490 31491 (4 flits)
Time taken is 7000 cycles
====== Traffic class 0 ======

Total number of flits generated = 31499, changed lanes = 30656
Overall minimum packet latency = 7 (1 samples)
Overall average packet latency = 54.8053 (1 samples)
Overall maximum packet latency = 302 (1 samples)
Overall minimum network latency = 8 (1 samples)
Overall average network latency = 47.7952 (1 samples)
Overall maximum network latency = 176 (1 samples)
Overall minimum flit latency = 8 (1 samples)
Overall average flit latency = 47.9895 (1 samples)
Overall maximum flit latency = 176 (1 samples)
Overall minimum fragmentation = 0 (1 samples)
Overall average fragmentation = 0 (1 samples)
Overall maximum fragmentation = 0 (1 samples)
Overall minimum injected packet rate = 0.318 (1 samples)
Overall average injected packet rate = 0.329125 (1 samples)
Overall maximum injected packet rate = 0.345333 (1 samples)
Overall minimum accepted packet rate = 0.298667 (1 samples)
Overall average accepted packet rate = 0.329896 (1 samples)
Overall maximum accepted packet rate = 0.344 (1 samples)
Overall minimum injected flit rate = 0.318 (1 samples)
Overall average injected flit rate = 0.329125 (1 samples)
Overall maximum injected flit rate = 0.345333 (1 samples)
Overall minimum accepted flit rate = 0.298667 (1 samples)
Overall average accepted flit rate = 0.329896 (1 samples)
Overall maximum accepted flit rate = 0.344 (1 samples)
Overall average injected packet size = 1 (1 samples)
Overall average accepted packet size = 1 (1 samples)
Overall average hops = 3.49953 (1 samples)
Overall throughput of the network (flits/cycle) = 10.4983
Overall throughput of the network (packets/cycle) = 10.4983
Total run time 3913.03
