make: Nothing to be done for 'all'.
Master: Running timer....
Master: Running SRC....
BEGIN Configuration File: ./examples/mesh88_lat_blackscholes
// $Id$

topology = mesh;
k = 8;
n = 2;

// Routing
routing_function = planar_adapt;

// Flow control
num_vcs     = 1;
vc_buf_size = 4;
wait_for_tail_credit = 1;

// Router architecture
vc_allocator = islip;
sw_allocator = islip;
alloc_iters  = 1;

credit_delay   = 1;
routing_delay  = 1;
vc_alloc_delay = 1;
sw_alloc_delay = 1;

input_speedup     = 1;
output_speedup    = 1;
internal_speedup  = 1.0;

vc_busy_when_full = 0;

// Traffic
workload=netrace({/home/sarab/Downloads/BookSim_Benchmark_files/x264_64c_simsmall.tra.bz2,100000000,1,2,1,1,0);

// Simulation
sim_type = workload;

END Configuration File: ./examples/mesh88_lat_blackscholes
Warming up...
===== Time: 10000 =====
Class 0:
Packets read from trace = 174 of 31326528 (0%)
Future packets = 1
Waiting packets = 0
Stalled packets = 160
Packets pending injection = 2
Packets in flight = 6
Minimum packet latency = 307
Average packet latency = 1315.2
Maximum packet latency = 3798
Minimum network latency = 303
Average network latency = 1313.6
Maximum network latency = 3798
Slowest packet = 0
Minimum flit latency = 15
Average flit latency = 230.3
Maximum flit latency = 3790
Slowest flit = 4
Minimum fragmentation = 231
Average fragmentation = 1255
Maximum fragmentation = 3756
Minimum injected packet rate = 0 (at node 0)
Average injected packet rate = 1.71875e-05
Maximum injected packet rate = 0.0004 (at node 33)
Minimum accepted packet rate = 0 (at node 0)
Average accepted packet rate = 7.8125e-06
Maximum accepted packet rate = 0.0003 (at node 5)
Minimum injected flit rate = 0 (at node 0)
Average injected flit rate = 8.4375e-05
Maximum injected flit rate = 0.002 (at node 33)
Minimum accepted flit rate = 0 (at node 0)
Average accepted flit rate = 6.25e-05
Maximum accepted flit rate = 0.0019 (at node 5)
Total number of injected packets = 11
Total number of injected flits = 54
Average injected packet length = 4.90909
Total number of accepted packets = 5
Total number of accepted flits = 40
Average accepted packet length = 8
Total in-flight flits = 15 (0 measured)
===== Time: 20000 =====
Class 0:
Packets read from trace = 316 of 31326528 (0%)
Future packets = 1
Waiting packets = 0
Stalled packets = 285
Packets pending injection = 8
Packets in flight = 12
Minimum packet latency = 16
Average packet latency = 3299.1
Maximum packet latency = 9556
Minimum network latency = 15
Average network latency = 3297.8
Maximum network latency = 9556
Slowest packet = 6
Minimum flit latency = 15
Average flit latency = 772.29
Maximum flit latency = 9549
Slowest flit = 34
Minimum fragmentation = 0
Average fragmentation = 3248.2
Maximum fragmentation = 9537
Minimum injected packet rate = 0 (at node 3)
Average injected packet rate = 1.71875e-05
Maximum injected packet rate = 0.00025 (at node 32)
Minimum accepted packet rate = 0 (at node 0)
Average accepted packet rate = 7.8125e-06
Maximum accepted packet rate = 0.0002 (at node 5)
Minimum injected flit rate = 0 (at node 3)
Average injected flit rate = 7.8125e-05
Maximum injected flit rate = 0.0012 (at node 32)
Minimum accepted flit rate = 0 (at node 0)
Average accepted flit rate = 4.84375e-05
Maximum accepted flit rate = 0.0012 (at node 5)
Total number of injected packets = 22
Total number of injected flits = 100
Average injected packet length = 4.54545
Total number of accepted packets = 10
Total number of accepted flits = 62
Average accepted packet length = 6.2
Total in-flight flits = 40 (0 measured)
===== Time: 30000 =====
Class 0:
Packets read from trace = 513 of 31326528 (0%)
Future packets = 1
Waiting packets = 0
Stalled packets = 461
Packets pending injection = 27
Packets in flight = 14
Minimum packet latency = 16
Average packet latency = 3299.1
Maximum packet latency = 9556
Minimum network latency = 15
Average network latency = 3297.8
Maximum network latency = 9556
Slowest packet = 6
Minimum flit latency = 15
Average flit latency = 772.29
Maximum flit latency = 9549
Slowest flit = 34
Minimum fragmentation = 0
Average fragmentation = 3248.2
Maximum fragmentation = 9537
Minimum injected packet rate = 0 (at node 3)
Average injected packet rate = 1.19792e-05
Maximum injected packet rate = 0.000166667 (at node 32)
Minimum accepted packet rate = 0 (at node 0)
Average accepted packet rate = 5.20833e-06
Maximum accepted packet rate = 0.000133333 (at node 5)
Minimum injected flit rate = 0 (at node 3)
Average injected flit rate = 5.46875e-05
Maximum injected flit rate = 0.0008 (at node 32)
Minimum accepted flit rate = 0 (at node 0)
Average accepted flit rate = 3.22917e-05
Maximum accepted flit rate = 0.0008 (at node 5)
Total number of injected packets = 23
Total number of injected flits = 105
Average injected packet length = 4.56522
Total number of accepted packets = 10
Total number of accepted flits = 62
Average accepted packet length = 6.2
Total in-flight flits = 50 (0 measured)
Warmup ends after 30000 cycles.
Beginning measurements...
===== Time: 40000 =====
Class 0:
Packets read from trace = 696 of 31326528 (0%)
Future packets = 1
Waiting packets = 0
Stalled packets = 630
Packets pending injection = 38
Packets in flight = 17
Minimum packet latency = nan
Average packet latency = -nan
Maximum packet latency = -nan
Minimum network latency = nan
Average network latency = -nan
Maximum network latency = -nan
Slowest packet = -1
Minimum flit latency = nan
Average flit latency = -nan
Maximum flit latency = -nan
Slowest flit = -1
Minimum fragmentation = nan
Average fragmentation = -nan
Maximum fragmentation = -nan
Minimum injected packet rate = 0 (at node 0)
Average injected packet rate = 3.125e-06
Maximum injected packet rate = 0.0001 (at node 33)
Minimum accepted packet rate = 0 (at node 0)
Average accepted packet rate = 0
Maximum accepted packet rate = 0 (at node 0)
Minimum injected flit rate = 0 (at node 0)
Average injected flit rate = 1.40625e-05
Maximum injected flit rate = 0.0005 (at node 63)
Minimum accepted flit rate = 0 (at node 0)
Average accepted flit rate = 0
Maximum accepted flit rate = 0 (at node 0)
Total number of injected packets = 2
Total number of injected flits = 9
Average injected packet length = 4.5
Total number of accepted packets = 0
Total number of accepted flits = 0
Average accepted packet length = -nan
Total in-flight flits = 65 (15 measured)
===== Time: 50000 =====
Class 0:
Packets read from trace = 860 of 31326528 (0%)
Future packets = 1
Waiting packets = 0
Stalled packets = 785
Packets pending injection = 45
Packets in flight = 19
Minimum packet latency = nan
Average packet latency = -nan
Maximum packet latency = -nan
Minimum network latency = nan
Average network latency = -nan
Maximum network latency = -nan
Slowest packet = -1
Minimum flit latency = nan
Average flit latency = -nan
Maximum flit latency = -nan
Slowest flit = -1
Minimum fragmentation = nan
Average fragmentation = -nan
Maximum fragmentation = -nan
Minimum injected packet rate = 0 (at node 0)
Average injected packet rate = 3.125e-06
Maximum injected packet rate = 5e-05 (at node 33)
Minimum accepted packet rate = 0 (at node 0)
Average accepted packet rate = 0
Maximum accepted packet rate = 0 (at node 0)
Minimum injected flit rate = 0 (at node 0)
Average injected flit rate = 1.48437e-05
Maximum injected flit rate = 0.00025 (at node 41)
Minimum accepted flit rate = 0 (at node 0)
Average accepted flit rate = 0
Maximum accepted flit rate = 0 (at node 0)
Total number of injected packets = 4
Total number of injected flits = 19
Average injected packet length = 4.75
Total number of accepted packets = 0
Total number of accepted flits = 0
Average accepted packet length = -nan
Total in-flight flits = 75 (25 measured)
===== Time: 60000 =====
Class 0:
Packets read from trace = 1036 of 31326528 (0%)
Future packets = 1
Waiting packets = 0
Stalled packets = 939
Packets pending injection = 62
Packets in flight = 23
Minimum packet latency = nan
Average packet latency = -nan
Maximum packet latency = -nan
Minimum network latency = nan
Average network latency = -nan
Maximum network latency = -nan
Slowest packet = -1
Minimum flit latency = 36904
Average flit latency = 36954.4
Maximum flit latency = 37156
Slowest flit = 71
Minimum fragmentation = nan
Average fragmentation = -nan
Maximum fragmentation = -nan
Minimum injected packet rate = 0 (at node 2)
Average injected packet rate = 3.64583e-06
Maximum injected packet rate = 3.33333e-05 (at node 0)
Minimum accepted packet rate = 0 (at node 0)
Average accepted packet rate = 5.20833e-07
Maximum accepted packet rate = 3.33333e-05 (at node 2)
Minimum injected flit rate = 0 (at node 2)
Average injected flit rate = 1.71875e-05
Maximum injected flit rate = 0.000166667 (at node 0)
Minimum accepted flit rate = 0 (at node 0)
Average accepted flit rate = 2.60417e-06
Maximum accepted flit rate = 0.000166667 (at node 2)
Total number of injected packets = 7
Total number of injected flits = 33
Average injected packet length = 4.71429
Total number of accepted packets = 1
Total number of accepted flits = 5
Average accepted packet length = 5
Total in-flight flits = 95 (50 measured)
===== Time: 70000 =====
Class 0:
Packets read from trace = 1173 of 31326528 (0%)
Future packets = 1
Waiting packets = 0
Stalled packets = 1061
Packets pending injection = 77
Packets in flight = 23
Minimum packet latency = nan
Average packet latency = -nan
Maximum packet latency = -nan
Minimum network latency = nan
Average network latency = -nan
Maximum network latency = -nan
Slowest packet = -1
Minimum flit latency = 36904
Average flit latency = 36954.4
Maximum flit latency = 37156
Slowest flit = 71
Minimum fragmentation = nan
Average fragmentation = -nan
Maximum fragmentation = -nan
Minimum injected packet rate = 0 (at node 2)
Average injected packet rate = 2.73437e-06
Maximum injected packet rate = 2.5e-05 (at node 0)
Minimum accepted packet rate = 0 (at node 0)
Average accepted packet rate = 3.90625e-07
Maximum accepted packet rate = 2.5e-05 (at node 2)
Minimum injected flit rate = 0 (at node 2)
Average injected flit rate = 1.28906e-05
Maximum injected flit rate = 0.000125 (at node 0)
Minimum accepted flit rate = 0 (at node 0)
Average accepted flit rate = 1.95313e-06
Maximum accepted flit rate = 0.000125 (at node 2)
Total number of injected packets = 7
Total number of injected flits = 33
Average injected packet length = 4.71429
Total number of accepted packets = 1
Total number of accepted flits = 5
Average accepted packet length = 5
Total in-flight flits = 95 (50 measured)
===== Time: 80000 =====
Class 0:
Packets read from trace = 1247 of 31326528 (0%)
Future packets = 1
Waiting packets = 1
Stalled packets = 1126
Packets pending injection = 85
Packets in flight = 23
Minimum packet latency = nan
Average packet latency = -nan
Maximum packet latency = -nan
Minimum network latency = nan
Average network latency = -nan
Maximum network latency = -nan
Slowest packet = -1
Minimum flit latency = 36904
Average flit latency = 36954.4
Maximum flit latency = 37156
Slowest flit = 71
Minimum fragmentation = nan
Average fragmentation = -nan
Maximum fragmentation = -nan
Minimum injected packet rate = 0 (at node 2)
Average injected packet rate = 2.1875e-06
Maximum injected packet rate = 2e-05 (at node 0)
Minimum accepted packet rate = 0 (at node 0)
Average accepted packet rate = 3.125e-07
Maximum accepted packet rate = 2e-05 (at node 2)
Minimum injected flit rate = 0 (at node 2)
Average injected flit rate = 1.03125e-05
Maximum injected flit rate = 0.0001 (at node 0)
Minimum accepted flit rate = 0 (at node 0)
Average accepted flit rate = 1.5625e-06
Maximum accepted flit rate = 0.0001 (at node 2)
Total number of injected packets = 7
Total number of injected flits = 33
Average injected packet length = 4.71429
Total number of accepted packets = 1
Total number of accepted flits = 5
Average accepted packet length = 5
Total in-flight flits = 95 (50 measured)
===== Time: 90000 =====
Class 0:
Packets read from trace = 1472 of 31326528 (0%)
Future packets = 1
Waiting packets = 0
Stalled packets = 1315
Packets pending injection = 119
Packets in flight = 26
Minimum packet latency = nan
Average packet latency = -nan
Maximum packet latency = -nan
Minimum network latency = nan
Average network latency = -nan
Maximum network latency = -nan
Slowest packet = -1
Minimum flit latency = 36
Average flit latency = 20546.2
Maximum flit latency = 37156
Slowest flit = 71
Minimum fragmentation = nan
Average fragmentation = -nan
Maximum fragmentation = -nan
Minimum injected packet rate = 0 (at node 4)
Average injected packet rate = 2.60417e-06
Maximum injected packet rate = 5e-05 (at node 2)
Minimum accepted packet rate = 0 (at node 0)
Average accepted packet rate = 2.60417e-07
Maximum accepted packet rate = 1.66667e-05 (at node 2)
Minimum injected flit rate = 0 (at node 4)
Average injected flit rate = 1.22396e-05
Maximum injected flit rate = 0.000233333 (at node 2)
Minimum accepted flit rate = 0 (at node 0)
Average accepted flit rate = 2.34375e-06
Maximum accepted flit rate = 8.33333e-05 (at node 2)
Total number of injected packets = 10
Total number of injected flits = 47
Average injected packet length = 4.7
Total number of accepted packets = 1
Total number of accepted flits = 9
Average accepted packet length = 9
Total in-flight flits = 106 (61 measured)
===== Time: 100000 =====
Class 0:
Packets read from trace = 1693 of 31326528 (0%)
Future packets = 1
Waiting packets = 0
Stalled packets = 1502
Packets pending injection = 152
Packets in flight = 27
Minimum packet latency = nan
Average packet latency = -nan
Maximum packet latency = -nan
Minimum network latency = nan
Average network latency = -nan
Maximum network latency = -nan
Slowest packet = -1
Minimum flit latency = 36
Average flit latency = 20546.2
Maximum flit latency = 37156
Slowest flit = 71
Minimum fragmentation = nan
Average fragmentation = -nan
Maximum fragmentation = -nan
Minimum injected packet rate = 0 (at node 4)
Average injected packet rate = 2.45536e-06
Maximum injected packet rate = 4.28571e-05 (at node 2)
Minimum accepted packet rate = 0 (at node 0)
Average accepted packet rate = 2.23214e-07
Maximum accepted packet rate = 1.42857e-05 (at node 2)
Minimum injected flit rate = 0 (at node 4)
Average injected flit rate = 1.16071e-05
Maximum injected flit rate = 0.0002 (at node 2)
Minimum accepted flit rate = 0 (at node 0)
Average accepted flit rate = 2.00893e-06
Maximum accepted flit rate = 7.14286e-05 (at node 2)
Total number of injected packets = 11
Total number of injected flits = 52
Average injected packet length = 4.72727
Total number of accepted packets = 1
Total number of accepted flits = 9
Average accepted packet length = 9
Total in-flight flits = 111 (66 measured)
===== Time: 110000 =====
Class 0:
Packets read from trace = 1911 of 31326528 (0%)
Future packets = 1
Waiting packets = 0
Stalled packets = 1693
Packets pending injection = 179
Packets in flight = 27
Minimum packet latency = nan
Average packet latency = -nan
Maximum packet latency = -nan
Minimum network latency = nan
Average network latency = -nan
Maximum network latency = -nan
Slowest packet = -1
Minimum flit latency = 36
Average flit latency = 20546.2
Maximum flit latency = 37156
Slowest flit = 71
Minimum fragmentation = nan
Average fragmentation = -nan
Maximum fragmentation = -nan
Minimum injected packet rate = 0 (at node 4)
Average injected packet rate = 2.14844e-06
Maximum injected packet rate = 3.75e-05 (at node 2)
Minimum accepted packet rate = 0 (at node 0)
Average accepted packet rate = 1.95313e-07
Maximum accepted packet rate = 1.25e-05 (at node 2)
Minimum injected flit rate = 0 (at node 4)
Average injected flit rate = 1.01562e-05
Maximum injected flit rate = 0.000175 (at node 2)
Minimum accepted flit rate = 0 (at node 0)
Average accepted flit rate = 1.75781e-06
Maximum accepted flit rate = 6.25e-05 (at node 2)
Total number of injected packets = 11
Total number of injected flits = 52
Average injected packet length = 4.72727
Total number of accepted packets = 1
Total number of accepted flits = 9
Average accepted packet length = 9
Total in-flight flits = 111 (66 measured)
===== Time: 120000 =====
Class 0:
Packets read from trace = 2079 of 31326528 (0%)
Future packets = 1
Waiting packets = 0
Stalled packets = 1835
Packets pending injection = 205
Packets in flight = 27
Minimum packet latency = nan
Average packet latency = -nan
Maximum packet latency = -nan
Minimum network latency = nan
Average network latency = -nan
Maximum network latency = -nan
Slowest packet = -1
Minimum flit latency = 36
Average flit latency = 20546.2
Maximum flit latency = 37156
Slowest flit = 71
Minimum fragmentation = nan
Average fragmentation = -nan
Maximum fragmentation = -nan
Minimum injected packet rate = 0 (at node 4)
Average injected packet rate = 1.90972e-06
Maximum injected packet rate = 3.33333e-05 (at node 2)
Minimum accepted packet rate = 0 (at node 0)
Average accepted packet rate = 1.73611e-07
Maximum accepted packet rate = 1.11111e-05 (at node 2)
Minimum injected flit rate = 0 (at node 4)
Average injected flit rate = 9.02778e-06
Maximum injected flit rate = 0.000155556 (at node 2)
Minimum accepted flit rate = 0 (at node 0)
Average accepted flit rate = 1.5625e-06
Maximum accepted flit rate = 5.55556e-05 (at node 2)
Total number of injected packets = 11
Total number of injected flits = 52
Average injected packet length = 4.72727
Total number of accepted packets = 1
Total number of accepted flits = 9
Average accepted packet length = 9
Total in-flight flits = 111 (66 measured)
===== Time: 130000 =====
Class 0:
Packets read from trace = 2170 of 31326528 (0%)
Future packets = 1
Waiting packets = 0
Stalled packets = 1923
Packets pending injection = 208
Packets in flight = 27
Minimum packet latency = nan
Average packet latency = -nan
Maximum packet latency = -nan
Minimum network latency = nan
Average network latency = -nan
Maximum network latency = -nan
Slowest packet = -1
Minimum flit latency = 36
Average flit latency = 20546.2
Maximum flit latency = 37156
Slowest flit = 71
Minimum fragmentation = nan
Average fragmentation = -nan
Maximum fragmentation = -nan
Minimum injected packet rate = 0 (at node 4)
Average injected packet rate = 1.71875e-06
Maximum injected packet rate = 3e-05 (at node 2)
Minimum accepted packet rate = 0 (at node 0)
Average accepted packet rate = 1.5625e-07
Maximum accepted packet rate = 1e-05 (at node 2)
Minimum injected flit rate = 0 (at node 4)
Average injected flit rate = 8.125e-06
Maximum injected flit rate = 0.00014 (at node 2)
Minimum accepted flit rate = 0 (at node 0)
Average accepted flit rate = 1.40625e-06
Maximum accepted flit rate = 5e-05 (at node 2)
Total number of injected packets = 11
Total number of injected flits = 52
Average injected packet length = 4.72727
Total number of accepted packets = 1
Total number of accepted flits = 9
Average accepted packet length = 9
Total in-flight flits = 111 (66 measured)
Completed measurements after 130000 cycles.
Draining remaining packets ...
Class 0:
Remaining flits: 14 15 16 17 18 19 20 21 22 23 [...] (108 flits)
Measured flits: 112 113 114 115 116 117 118 119 120 121 [...] (65 flits)
Class 0:
Remaining flits: 14 15 16 17 18 19 20 21 22 23 [...] (104 flits)
Measured flits: 112 113 114 115 116 117 118 119 120 121 [...] (61 flits)
Class 0:
Remaining flits: 14 15 16 17 18 19 20 21 22 23 [...] (97 flits)
Measured flits: 112 113 114 115 116 117 118 119 120 121 [...] (57 flits)
Class 0:
Remaining flits: 14 15 16 17 18 19 20 21 22 23 [...] (94 flits)
Measured flits: 112 113 114 115 116 117 118 119 120 121 [...] (56 flits)
Class 0:
Remaining flits: 14 15 16 17 18 19 20 21 22 23 [...] (87 flits)
Measured flits: 112 113 114 115 116 117 118 119 120 121 [...] (52 flits)
Class 0:
Remaining flits: 14 15 16 17 18 19 20 21 22 23 [...] (78 flits)
Measured flits: 112 113 114 115 116 117 118 119 120 121 [...] (46 flits)
Class 0:
Remaining flits: 14 15 16 17 18 19 20 21 22 23 [...] (69 flits)
Measured flits: 112 113 114 115 116 117 118 119 120 121 [...] (37 flits)
Class 0:
Remaining flits: 14 15 16 17 18 19 20 21 22 23 [...] (67 flits)
Measured flits: 112 113 114 115 116 117 118 119 120 121 [...] (35 flits)
Class 0:
Remaining flits: 14 15 16 17 18 19 20 21 22 23 [...] (62 flits)
Measured flits: 112 113 114 115 116 117 118 119 120 121 [...] (30 flits)
Class 0:
Remaining flits: 14 15 16 17 18 19 20 21 22 23 [...] (59 flits)
Measured flits: 112 113 114 115 116 117 118 119 120 121 [...] (30 flits)
Class 0:
Remaining flits: 14 15 16 17 18 19 20 21 22 23 [...] (57 flits)
Measured flits: 112 113 114 115 116 117 118 119 120 121 [...] (28 flits)
Class 0:
Remaining flits: 14 15 16 17 18 19 20 21 22 23 [...] (54 flits)
Measured flits: 112 113 114 115 116 117 118 119 120 121 [...] (25 flits)
Class 0:
Remaining flits: 14 15 16 17 18 19 20 21 22 23 [...] (49 flits)
Measured flits: 112 113 114 115 116 117 118 119 120 121 [...] (20 flits)
Class 0:
Remaining flits: 14 15 16 17 18 19 20 21 22 23 [...] (49 flits)
Measured flits: 112 113 114 115 116 117 118 119 120 121 [...] (20 flits)
Class 0:
Remaining flits: 14 15 16 17 18 19 20 21 22 23 [...] (49 flits)
Measured flits: 112 113 114 115 116 117 118 119 120 121 [...] (20 flits)
Class 0:
Remaining flits: 14 15 16 17 18 19 20 21 22 23 [...] (49 flits)
Measured flits: 112 113 114 115 116 117 118 119 120 121 [...] (20 flits)
Class 0:
Remaining flits: 14 15 16 17 18 19 20 21 22 23 [...] (49 flits)
Measured flits: 112 113 114 115 116 117 118 119 120 121 [...] (20 flits)
Class 0:
Remaining flits: 14 15 16 17 18 19 20 21 22 23 [...] (49 flits)
Measured flits: 112 113 114 115 116 117 118 119 120 121 [...] (20 flits)
Class 0:
Remaining flits: 14 15 16 17 18 19 20 21 22 23 [...] (49 flits)
Measured flits: 112 113 114 115 116 117 118 119 120 121 [...] (20 flits)
Class 0:
Remaining flits: 14 15 16 17 18 19 20 21 22 23 [...] (49 flits)
Measured flits: 112 113 114 115 116 117 118 119 120 121 [...] (20 flits)
Class 0:
Remaining flits: 14 15 16 17 18 19 20 21 22 23 [...] (49 flits)
Measured flits: 112 113 114 115 116 117 118 119 120 121 [...] (20 flits)
Class 0:
Remaining flits: 14 15 16 17 18 19 20 21 22 23 [...] (49 flits)
Measured flits: 112 113 114 115 116 117 118 119 120 121 [...] (20 flits)
Class 0:
Remaining flits: 14 15 16 17 18 19 20 21 22 23 [...] (49 flits)
Measured flits: 112 113 114 115 116 117 118 119 120 121 [...] (20 flits)
Class 0:
Remaining flits: 14 15 16 17 18 19 20 21 22 23 [...] (49 flits)
Measured flits: 112 113 114 115 116 117 118 119 120 121 [...] (20 flits)
Class 0:
Remaining flits: 14 15 16 17 18 19 20 21 22 23 [...] (49 flits)
Measured flits: 112 113 114 115 116 117 118 119 120 121 [...] (20 flits)
Class 0:
Remaining flits: 14 15 16 17 18 19 20 21 22 23 [...] (49 flits)
Measured flits: 112 113 114 115 116 117 118 119 120 121 [...] (20 flits)
Class 0:
Remaining flits: 14 15 16 17 18 19 20 21 22 23 [...] (49 flits)
Measured flits: 112 113 114 115 116 117 118 119 120 121 [...] (20 flits)
Class 0:
Remaining flits: 14 15 16 17 18 19 20 21 22 23 [...] (49 flits)
Measured flits: 112 113 114 115 116 117 118 119 120 121 [...] (20 flits)
Class 0:
Remaining flits: 14 15 16 17 18 19 20 21 22 23 [...] (49 flits)
Measured flits: 112 113 114 115 116 117 118 119 120 121 [...] (20 flits)
Class 0:
Remaining flits: 14 15 16 17 18 19 20 21 22 23 [...] (49 flits)
Measured flits: 112 113 114 115 116 117 118 119 120 121 [...] (20 flits)
Class 0:
Remaining flits: 14 15 16 17 18 19 20 21 22 23 [...] (49 flits)
Measured flits: 112 113 114 115 116 117 118 119 120 121 [...] (20 flits)
Class 0:
Remaining flits: 14 15 16 17 18 19 20 21 22 23 [...] (49 flits)
Measured flits: 112 113 114 115 116 117 118 119 120 121 [...] (20 flits)
Class 0:
Remaining flits: 14 15 16 17 18 19 20 21 22 23 [...] (49 flits)
Measured flits: 112 113 114 115 116 117 118 119 120 121 [...] (20 flits)
Class 0:
Remaining flits: 14 15 16 17 18 19 20 21 22 23 [...] (49 flits)
Measured flits: 112 113 114 115 116 117 118 119 120 121 [...] (20 flits)
Class 0:
Remaining flits: 14 15 16 17 18 19 20 21 22 23 [...] (49 flits)
Measured flits: 112 113 114 115 116 117 118 119 120 121 [...] (20 flits)
Class 0:
Remaining flits: 14 15 16 17 18 19 20 21 22 23 [...] (49 flits)
Measured flits: 112 113 114 115 116 117 118 119 120 121 [...] (20 flits)
Class 0:
Remaining flits: 14 15 16 17 18 19 20 21 22 23 [...] (49 flits)
Measured flits: 112 113 114 115 116 117 118 119 120 121 [...] (20 flits)
Class 0:
Remaining flits: 14 15 16 17 18 19 20 21 22 23 [...] (49 flits)
Measured flits: 112 113 114 115 116 117 118 119 120 121 [...] (20 flits)
Class 0:
Remaining flits: 14 15 16 17 18 19 20 21 22 23 [...] (49 flits)
Measured flits: 112 113 114 115 116 117 118 119 120 121 [...] (20 flits)
Class 0:
Remaining flits: 14 15 16 17 18 19 20 21 22 23 [...] (49 flits)
Measured flits: 112 113 114 115 116 117 118 119 120 121 [...] (20 flits)
Class 0:
Remaining flits: 14 15 16 17 18 19 20 21 22 23 [...] (49 flits)
Measured flits: 112 113 114 115 116 117 118 119 120 121 [...] (20 flits)
Class 0:
Remaining flits: 14 15 16 17 18 19 20 21 22 23 [...] (49 flits)
Measured flits: 112 113 114 115 116 117 118 119 120 121 [...] (20 flits)
Class 0:
Remaining flits: 14 15 16 17 18 19 20 21 22 23 [...] (49 flits)
Measured flits: 112 113 114 115 116 117 118 119 120 121 [...] (20 flits)
Class 0:
Remaining flits: 14 15 16 17 18 19 20 21 22 23 [...] (49 flits)
Measured flits: 112 113 114 115 116 117 118 119 120 121 [...] (20 flits)
Class 0:
Remaining flits: 14 15 16 17 18 19 20 21 22 23 [...] (49 flits)
Measured flits: 112 113 114 115 116 117 118 119 120 121 [...] (20 flits)
Class 0:
Remaining flits: 14 15 16 17 18 19 20 21 22 23 [...] (49 flits)
Measured flits: 112 113 114 115 116 117 118 119 120 121 [...] (20 flits)
Class 0:
Remaining flits: 14 15 16 17 18 19 20 21 22 23 [...] (49 flits)
Measured flits: 112 113 114 115 116 117 118 119 120 121 [...] (20 flits)
Class 0:
Remaining flits: 14 15 16 17 18 19 20 21 22 23 [...] (49 flits)
Measured flits: 112 113 114 115 116 117 118 119 120 121 [...] (20 flits)
Class 0:
Remaining flits: 14 15 16 17 18 19 20 21 22 23 [...] (49 flits)
Measured flits: 112 113 114 115 116 117 118 119 120 121 [...] (20 flits)
Class 0:
Remaining flits: 14 15 16 17 18 19 20 21 22 23 [...] (49 flits)
Measured flits: 112 113 114 115 116 117 118 119 120 121 [...] (20 flits)
Class 0:
Remaining flits: 14 15 16 17 18 19 20 21 22 23 [...] (49 flits)
Measured flits: 112 113 114 115 116 117 118 119 120 121 [...] (20 flits)
Class 0:
Remaining flits: 14 15 16 17 18 19 20 21 22 23 [...] (49 flits)
Measured flits: 112 113 114 115 116 117 118 119 120 121 [...] (20 flits)
Class 0:
Remaining flits: 14 15 16 17 18 19 20 21 22 23 [...] (49 flits)
Measured flits: 112 113 114 115 116 117 118 119 120 121 [...] (20 flits)
Class 0:
Remaining flits: 14 15 16 17 18 19 20 21 22 23 [...] (49 flits)
Measured flits: 112 113 114 115 116 117 118 119 120 121 [...] (20 flits)
Class 0:
Remaining flits: 14 15 16 17 18 19 20 21 22 23 [...] (49 flits)
Measured flits: 112 113 114 115 116 117 118 119 120 121 [...] (20 flits)
Class 0:
Remaining flits: 14 15 16 17 18 19 20 21 22 23 [...] (49 flits)
Measured flits: 112 113 114 115 116 117 118 119 120 121 [...] (20 flits)
Class 0:
Remaining flits: 14 15 16 17 18 19 20 21 22 23 [...] (49 flits)
Measured flits: 112 113 114 115 116 117 118 119 120 121 [...] (20 flits)
Class 0:
Remaining flits: 14 15 16 17 18 19 20 21 22 23 [...] (49 flits)
Measured flits: 112 113 114 115 116 117 118 119 120 121 [...] (20 flits)
Class 0:
Remaining flits: 14 15 16 17 18 19 20 21 22 23 [...] (49 flits)
Measured flits: 112 113 114 115 116 117 118 119 120 121 [...] (20 flits)
Class 0:
Remaining flits: 14 15 16 17 18 19 20 21 22 23 [...] (49 flits)
Measured flits: 112 113 114 115 116 117 118 119 120 121 [...] (20 flits)
Class 0:
Remaining flits: 14 15 16 17 18 19 20 21 22 23 [...] (49 flits)
Measured flits: 112 113 114 115 116 117 118 119 120 121 [...] (20 flits)
Class 0:
Remaining flits: 14 15 16 17 18 19 20 21 22 23 [...] (49 flits)
Measured flits: 112 113 114 115 116 117 118 119 120 121 [...] (20 flits)
Class 0:
Remaining flits: 14 15 16 17 18 19 20 21 22 23 [...] (49 flits)
Measured flits: 112 113 114 115 116 117 118 119 120 121 [...] (20 flits)
Class 0:
Remaining flits: 14 15 16 17 18 19 20 21 22 23 [...] (49 flits)
Measured flits: 112 113 114 115 116 117 118 119 120 121 [...] (20 flits)
Class 0:
Remaining flits: 14 15 16 17 18 19 20 21 22 23 [...] (49 flits)
Measured flits: 112 113 114 115 116 117 118 119 120 121 [...] (20 flits)
Class 0:
Remaining flits: 14 15 16 17 18 19 20 21 22 23 [...] (49 flits)
Measured flits: 112 113 114 115 116 117 118 119 120 121 [...] (20 flits)
Class 0:
Remaining flits: 14 15 16 17 18 19 20 21 22 23 [...] (49 flits)
Measured flits: 112 113 114 115 116 117 118 119 120 121 [...] (20 flits)
Class 0:
Remaining flits: 14 15 16 17 18 19 20 21 22 23 [...] (49 flits)
Measured flits: 112 113 114 115 116 117 118 119 120 121 [...] (20 flits)
Class 0:
Remaining flits: 14 15 16 17 18 19 20 21 22 23 [...] (49 flits)
Measured flits: 112 113 114 115 116 117 118 119 120 121 [...] (20 flits)
Class 0:
Remaining flits: 14 15 16 17 18 19 20 21 22 23 [...] (49 flits)
Measured flits: 112 113 114 115 116 117 118 119 120 121 [...] (20 flits)
Class 0:
Remaining flits: 14 15 16 17 18 19 20 21 22 23 [...] (49 flits)
Measured flits: 112 113 114 115 116 117 118 119 120 121 [...] (20 flits)
Class 0:
Remaining flits: 14 15 16 17 18 19 20 21 22 23 [...] (49 flits)
Measured flits: 112 113 114 115 116 117 118 119 120 121 [...] (20 flits)
Class 0:
Remaining flits: 14 15 16 17 18 19 20 21 22 23 [...] (49 flits)
Measured flits: 112 113 114 115 116 117 118 119 120 121 [...] (20 flits)
Class 0:
Remaining flits: 14 15 16 17 18 19 20 21 22 23 [...] (49 flits)
Measured flits: 112 113 114 115 116 117 118 119 120 121 [...] (20 flits)
Class 0:
Remaining flits: 14 15 16 17 18 19 20 21 22 23 [...] (49 flits)
Measured flits: 112 113 114 115 116 117 118 119 120 121 [...] (20 flits)
Class 0:
Remaining flits: 14 15 16 17 18 19 20 21 22 23 [...] (49 flits)
Measured flits: 112 113 114 115 116 117 118 119 120 121 [...] (20 flits)
Class 0:
Remaining flits: 14 15 16 17 18 19 20 21 22 23 [...] (49 flits)
Measured flits: 112 113 114 115 116 117 118 119 120 121 [...] (20 flits)
Class 0:
Remaining flits: 14 15 16 17 18 19 20 21 22 23 [...] (49 flits)
Measured flits: 112 113 114 115 116 117 118 119 120 121 [...] (20 flits)
Class 0:
Remaining flits: 14 15 16 17 18 19 20 21 22 23 [...] (49 flits)
Measured flits: 112 113 114 115 116 117 118 119 120 121 [...] (20 flits)
Class 0:
Remaining flits: 14 15 16 17 18 19 20 21 22 23 [...] (49 flits)
Measured flits: 112 113 114 115 116 117 118 119 120 121 [...] (20 flits)
Class 0:
Remaining flits: 14 15 16 17 18 19 20 21 22 23 [...] (49 flits)
Measured flits: 112 113 114 115 116 117 118 119 120 121 [...] (20 flits)
Class 0:
Remaining flits: 14 15 16 17 18 19 20 21 22 23 [...] (49 flits)
Measured flits: 112 113 114 115 116 117 118 119 120 121 [...] (20 flits)
Class 0:
Remaining flits: 14 15 16 17 18 19 20 21 22 23 [...] (49 flits)
Measured flits: 112 113 114 115 116 117 118 119 120 121 [...] (20 flits)
Class 0:
Remaining flits: 14 15 16 17 18 19 20 21 22 23 [...] (49 flits)
Measured flits: 112 113 114 115 116 117 118 119 120 121 [...] (20 flits)
Class 0:
Remaining flits: 14 15 16 17 18 19 20 21 22 23 [...] (49 flits)
Measured flits: 112 113 114 115 116 117 118 119 120 121 [...] (20 flits)
Class 0:
Remaining flits: 14 15 16 17 18 19 20 21 22 23 [...] (49 flits)
Measured flits: 112 113 114 115 116 117 118 119 120 121 [...] (20 flits)
Class 0:
Remaining flits: 14 15 16 17 18 19 20 21 22 23 [...] (49 flits)
Measured flits: 112 113 114 115 116 117 118 119 120 121 [...] (20 flits)
Class 0:
Remaining flits: 14 15 16 17 18 19 20 21 22 23 [...] (49 flits)
Measured flits: 112 113 114 115 116 117 118 119 120 121 [...] (20 flits)
Class 0:
Remaining flits: 14 15 16 17 18 19 20 21 22 23 [...] (49 flits)
Measured flits: 112 113 114 115 116 117 118 119 120 121 [...] (20 flits)
Class 0:
Remaining flits: 14 15 16 17 18 19 20 21 22 23 [...] (49 flits)
Measured flits: 112 113 114 115 116 117 118 119 120 121 [...] (20 flits)
Class 0:
Remaining flits: 14 15 16 17 18 19 20 21 22 23 [...] (49 flits)
Measured flits: 112 113 114 115 116 117 118 119 120 121 [...] (20 flits)
Class 0:
Remaining flits: 14 15 16 17 18 19 20 21 22 23 [...] (49 flits)
Measured flits: 112 113 114 115 116 117 118 119 120 121 [...] (20 flits)
Class 0:
Remaining flits: 14 15 16 17 18 19 20 21 22 23 [...] (49 flits)
Measured flits: 112 113 114 115 116 117 118 119 120 121 [...] (20 flits)
Class 0:
Remaining flits: 14 15 16 17 18 19 20 21 22 23 [...] (49 flits)
Measured flits: 112 113 114 115 116 117 118 119 120 121 [...] (20 flits)
Class 0:
Remaining flits: 14 15 16 17 18 19 20 21 22 23 [...] (49 flits)
Measured flits: 112 113 114 115 116 117 118 119 120 121 [...] (20 flits)
Class 0:
Remaining flits: 14 15 16 17 18 19 20 21 22 23 [...] (49 flits)
Measured flits: 112 113 114 115 116 117 118 119 120 121 [...] (20 flits)
Class 0:
Remaining flits: 14 15 16 17 18 19 20 21 22 23 [...] (49 flits)
Measured flits: 112 113 114 115 116 117 118 119 120 121 [...] (20 flits)
Class 0:
Remaining flits: 14 15 16 17 18 19 20 21 22 23 [...] (49 flits)
Measured flits: 112 113 114 115 116 117 118 119 120 121 [...] (20 flits)
Class 0:
Remaining flits: 14 15 16 17 18 19 20 21 22 23 [...] (49 flits)
Measured flits: 112 113 114 115 116 117 118 119 120 121 [...] (20 flits)
Class 0:
Remaining flits: 14 15 16 17 18 19 20 21 22 23 [...] (49 flits)
Measured flits: 112 113 114 115 116 117 118 119 120 121 [...] (20 flits)
Class 0:
Remaining flits: 14 15 16 17 18 19 20 21 22 23 [...] (49 flits)
Measured flits: 112 113 114 115 116 117 118 119 120 121 [...] (20 flits)
Time taken is 131000 cycles
====== Traffic class 0 ======

Total number of flits generated = 182, changed lanes = 0
Overall minimum packet latency = 43740 (1 samples)
Overall average packet latency = 71402.4 (1 samples)
Overall maximum packet latency = 97744 (1 samples)
Overall minimum network latency = 89 (1 samples)
Overall average network latency = 63634.6 (1 samples)
Overall maximum network latency = 97744 (1 samples)
Overall minimum flit latency = 36 (1 samples)
Overall average flit latency = 67405.2 (1 samples)
Overall maximum flit latency = 116527 (1 samples)
Overall minimum fragmentation = 4 (1 samples)
Overall average fragmentation = 5000.4 (1 samples)
Overall maximum fragmentation = 49938 (1 samples)
Overall minimum injected packet rate = 0 (1 samples)
Overall average injected packet rate = 1.71875e-06 (1 samples)
Overall maximum injected packet rate = 3e-05 (1 samples)
Overall minimum accepted packet rate = 0 (1 samples)
Overall average accepted packet rate = 1.5625e-07 (1 samples)
Overall maximum accepted packet rate = 1e-05 (1 samples)
Overall minimum injected flit rate = 0 (1 samples)
Overall average injected flit rate = 8.125e-06 (1 samples)
Overall maximum injected flit rate = 0.00014 (1 samples)
Overall minimum accepted flit rate = 0 (1 samples)
Overall average accepted flit rate = 1.40625e-06 (1 samples)
Overall maximum accepted flit rate = 5e-05 (1 samples)
Overall average injected packet size = 4.72727 (1 samples)
Overall average accepted packet size = 9 (1 samples)
Overall average hops = 6.6 (1 samples)
Overall throughput of the network (flits/cycle) = 0.00133
Overall throughput of the network (packets/cycle) = 0.00026
Overall workload runtime = 100000 (1 samples)

The distribution of the source packets of size 1 is: 

Source [0] = 0
Source [1] = 1
Source [2] = 1
Source [3] = 0
Source [4] = 0
Source [5] = 0
Source [6] = 0
Source [7] = 0
Source [8] = 0
Source [9] = 0
Source [10] = 0
Source [11] = 0
Source [12] = 0
Source [13] = 0
Source [14] = 0
Source [15] = 0
Source [16] = 0
Source [17] = 0
Source [18] = 0
Source [19] = 0
Source [20] = 0
Source [21] = 0
Source [22] = 0
Source [23] = 0
Source [24] = 0
Source [25] = 0
Source [26] = 0
Source [27] = 0
Source [28] = 0
Source [29] = 0
Source [30] = 0
Source [31] = 0
Source [32] = 0
Source [33] = 0
Source [34] = 0
Source [35] = 0
Source [36] = 0
Source [37] = 0
Source [38] = 0
Source [39] = 0
Source [40] = 0
Source [41] = 0
Source [42] = 0
Source [43] = 0
Source [44] = 0
Source [45] = 0
Source [46] = 0
Source [47] = 0
Source [48] = 0
Source [49] = 0
Source [50] = 0
Source [51] = 0
Source [52] = 0
Source [53] = 0
Source [54] = 0
Source [55] = 0
Source [56] = 0
Source [57] = 0
Source [58] = 0
Source [59] = 0
Source [60] = 0
Source [61] = 0
Source [62] = 0
Source [63] = 0
The distribution of the source packets of size 5 is: 

Source [0] = 3
Source [1] = 4
Source [2] = 3
Source [3] = 1
Source [4] = 0
Source [5] = 1
Source [6] = 0
Source [7] = 0
Source [8] = 0
Source [9] = 0
Source [10] = 0
Source [11] = 0
Source [12] = 0
Source [13] = 0
Source [14] = 0
Source [15] = 0
Source [16] = 0
Source [17] = 0
Source [18] = 0
Source [19] = 0
Source [20] = 0
Source [21] = 0
Source [22] = 0
Source [23] = 0
Source [24] = 0
Source [25] = 0
Source [26] = 0
Source [27] = 0
Source [28] = 0
Source [29] = 0
Source [30] = 0
Source [31] = 0
Source [32] = 5
Source [33] = 5
Source [34] = 0
Source [35] = 0
Source [36] = 0
Source [37] = 0
Source [38] = 0
Source [39] = 0
Source [40] = 0
Source [41] = 1
Source [42] = 0
Source [43] = 0
Source [44] = 0
Source [45] = 0
Source [46] = 1
Source [47] = 0
Source [48] = 0
Source [49] = 0
Source [50] = 0
Source [51] = 0
Source [52] = 0
Source [53] = 0
Source [54] = 0
Source [55] = 0
Source [56] = 0
Source [57] = 1
Source [58] = 0
Source [59] = 0
Source [60] = 0
Source [61] = 4
Source [62] = 5
Source [63] = 2
The distribution of the dest packets of size 1 is: 

dest [0] = 0
dest [1] = 1
dest [2] = 0
dest [3] = 0
dest [4] = 0
dest [5] = 1
dest [6] = 0
dest [7] = 0
dest [8] = 0
dest [9] = 0
dest [10] = 0
dest [11] = 0
dest [12] = 0
dest [13] = 0
dest [14] = 0
dest [15] = 0
dest [16] = 0
dest [17] = 0
dest [18] = 0
dest [19] = 0
dest [20] = 0
dest [21] = 0
dest [22] = 0
dest [23] = 0
dest [24] = 0
dest [25] = 0
dest [26] = 0
dest [27] = 0
dest [28] = 0
dest [29] = 0
dest [30] = 0
dest [31] = 0
dest [32] = 0
dest [33] = 0
dest [34] = 0
dest [35] = 0
dest [36] = 0
dest [37] = 0
dest [38] = 0
dest [39] = 0
dest [40] = 0
dest [41] = 0
dest [42] = 0
dest [43] = 0
dest [44] = 0
dest [45] = 0
dest [46] = 0
dest [47] = 0
dest [48] = 0
dest [49] = 0
dest [50] = 0
dest [51] = 0
dest [52] = 0
dest [53] = 0
dest [54] = 0
dest [55] = 0
dest [56] = 0
dest [57] = 0
dest [58] = 0
dest [59] = 0
dest [60] = 0
dest [61] = 0
dest [62] = 0
dest [63] = 0
The distribution of the dest packets of size 5 is: 

dest [0] = 0
dest [1] = 1
dest [2] = 9
dest [3] = 0
dest [4] = 0
dest [5] = 10
dest [6] = 0
dest [7] = 0
dest [8] = 0
dest [9] = 0
dest [10] = 0
dest [11] = 0
dest [12] = 0
dest [13] = 0
dest [14] = 0
dest [15] = 0
dest [16] = 3
dest [17] = 0
dest [18] = 0
dest [19] = 0
dest [20] = 0
dest [21] = 0
dest [22] = 0
dest [23] = 1
dest [24] = 0
dest [25] = 0
dest [26] = 0
dest [27] = 0
dest [28] = 0
dest [29] = 0
dest [30] = 0
dest [31] = 0
dest [32] = 0
dest [33] = 0
dest [34] = 0
dest [35] = 0
dest [36] = 0
dest [37] = 0
dest [38] = 0
dest [39] = 0
dest [40] = 0
dest [41] = 0
dest [42] = 0
dest [43] = 0
dest [44] = 0
dest [45] = 0
dest [46] = 0
dest [47] = 4
dest [48] = 0
dest [49] = 0
dest [50] = 0
dest [51] = 0
dest [52] = 0
dest [53] = 0
dest [54] = 0
dest [55] = 0
dest [56] = 0
dest [57] = 0
dest [58] = 6
dest [59] = 0
dest [60] = 0
dest [61] = 2
dest [62] = 0
dest [63] = 0Total run time 379.365
