make: Nothing to be done for 'all'.
Master: Running timer....
Master: Running SRC....
BEGIN Configuration File: ./examples/mesh88_lat_blackscholes
// $Id$

topology = mesh;
k = 8;
n = 2;

// Routing
routing_function = planar_adapt;

// Flow control
num_vcs     = 1;
vc_buf_size = 4;
wait_for_tail_credit = 1;

// Router architecture
vc_allocator = islip;
sw_allocator = islip;
alloc_iters  = 1;

credit_delay   = 1;
routing_delay  = 1;
vc_alloc_delay = 1;
sw_alloc_delay = 1;

input_speedup     = 1;
output_speedup    = 1;
internal_speedup  = 1.0;

vc_busy_when_full = 0;

// Traffic
workload=netrace({/home/sarab/Downloads/BookSim_Benchmark_files/dedup_64c_simmedium.tra.bz2,100000000,1,2,1,1,0);

// Simulation
sim_type = workload;

END Configuration File: ./examples/mesh88_lat_blackscholes
Warming up...
===== Time: 10000 =====
Class 0:
Packets read from trace = 81 of 100000000 (0%)
Future packets = 1
Waiting packets = 0
Stalled packets = 66
Packets pending injection = 1
Packets in flight = 5
Minimum packet latency = 36
Average packet latency = 626.375
Maximum packet latency = 2240
Minimum network latency = 36
Average network latency = 625.5
Maximum network latency = 2236
Slowest packet = 5
Minimum flit latency = 36
Average flit latency = 181.302
Maximum flit latency = 2227
Slowest flit = 17
Minimum fragmentation = 0
Average fragmentation = 562.375
Maximum fragmentation = 2150
Minimum injected packet rate = 0 (at node 0)
Average injected packet rate = 2.03125e-05
Maximum injected packet rate = 0.0003 (at node 14)
Minimum accepted packet rate = 0 (at node 0)
Average accepted packet rate = 1.25e-05
Maximum accepted packet rate = 0.0002 (at node 20)
Minimum injected flit rate = 0 (at node 0)
Average injected flit rate = 8.125e-05
Maximum injected flit rate = 0.0015 (at node 14)
Minimum accepted flit rate = 0 (at node 0)
Average accepted flit rate = 6.71875e-05
Maximum accepted flit rate = 0.0014 (at node 58)
Total number of injected packets = 13
Total number of injected flits = 52
Average injected packet length = 4
Total number of accepted packets = 8
Total number of accepted flits = 43
Average accepted packet length = 5.375
Total in-flight flits = 10 (0 measured)
===== Time: 20000 =====
Class 0:
Packets read from trace = 139 of 100000000 (0%)
Future packets = 1
Waiting packets = 0
Stalled packets = 116
Packets pending injection = 5
Packets in flight = 7
Minimum packet latency = 36
Average packet latency = 1130.2
Maximum packet latency = 4489
Minimum network latency = 36
Average network latency = 1129.2
Maximum network latency = 4486
Slowest packet = 8
Minimum flit latency = 30
Average flit latency = 408.7
Maximum flit latency = 4481
Slowest flit = 31
Minimum fragmentation = 0
Average fragmentation = 1069
Maximum fragmentation = 4423
Minimum injected packet rate = 0 (at node 0)
Average injected packet rate = 1.25e-05
Maximum injected packet rate = 0.00015 (at node 14)
Minimum accepted packet rate = 0 (at node 0)
Average accepted packet rate = 7.8125e-06
Maximum accepted packet rate = 0.0001 (at node 5)
Minimum injected flit rate = 0 (at node 0)
Average injected flit rate = 5.23438e-05
Maximum injected flit rate = 0.00075 (at node 14)
Minimum accepted flit rate = 0 (at node 0)
Average accepted flit rate = 3.90625e-05
Maximum accepted flit rate = 0.0007 (at node 58)
Total number of injected packets = 16
Total number of injected flits = 67
Average injected packet length = 4.1875
Total number of accepted packets = 10
Total number of accepted flits = 50
Average accepted packet length = 5
Total in-flight flits = 23 (0 measured)
===== Time: 30000 =====
Class 0:
Packets read from trace = 159 of 100000000 (0%)
Future packets = 1
Waiting packets = 0
Stalled packets = 133
Packets pending injection = 7
Packets in flight = 8
Minimum packet latency = 36
Average packet latency = 1130.2
Maximum packet latency = 4489
Minimum network latency = 36
Average network latency = 1129.2
Maximum network latency = 4486
Slowest packet = 8
Minimum flit latency = 30
Average flit latency = 408.7
Maximum flit latency = 4481
Slowest flit = 31
Minimum fragmentation = 0
Average fragmentation = 1069
Maximum fragmentation = 4423
Minimum injected packet rate = 0 (at node 0)
Average injected packet rate = 8.85417e-06
Maximum injected packet rate = 0.0001 (at node 14)
Minimum accepted packet rate = 0 (at node 0)
Average accepted packet rate = 5.20833e-06
Maximum accepted packet rate = 6.66667e-05 (at node 5)
Minimum injected flit rate = 0 (at node 0)
Average injected flit rate = 3.69792e-05
Maximum injected flit rate = 0.0005 (at node 14)
Minimum accepted flit rate = 0 (at node 0)
Average accepted flit rate = 2.60417e-05
Maximum accepted flit rate = 0.000466667 (at node 58)
Total number of injected packets = 17
Total number of injected flits = 71
Average injected packet length = 4.17647
Total number of accepted packets = 10
Total number of accepted flits = 50
Average accepted packet length = 5
Total in-flight flits = 28 (0 measured)
Warmup ends after 30000 cycles.
Beginning measurements...
===== Time: 40000 =====
Class 0:
Packets read from trace = 259 of 100000000 (0%)
Future packets = 1
Waiting packets = 0
Stalled packets = 221
Packets pending injection = 12
Packets in flight = 9
Minimum packet latency = 53
Average packet latency = 93.4
Maximum packet latency = 137
Minimum network latency = 50
Average network latency = 90.8
Maximum network latency = 134
Slowest packet = 20
Minimum flit latency = 30
Average flit latency = 735.353
Maximum flit latency = 23323
Slowest flit = 42
Minimum fragmentation = 14
Average fragmentation = 54.8
Maximum fragmentation = 96
Minimum injected packet rate = 0 (at node 0)
Average injected packet rate = 1.09375e-05
Maximum injected packet rate = 0.0006 (at node 26)
Minimum accepted packet rate = 0 (at node 0)
Average accepted packet rate = 9.375e-06
Maximum accepted packet rate = 0.0005 (at node 16)
Minimum injected flit rate = 0 (at node 0)
Average injected flit rate = 5.46875e-05
Maximum injected flit rate = 0.003 (at node 26)
Minimum accepted flit rate = 0 (at node 0)
Average accepted flit rate = 5.3125e-05
Maximum accepted flit rate = 0.0029 (at node 16)
Total number of injected packets = 7
Total number of injected flits = 35
Average injected packet length = 5
Total number of accepted packets = 6
Total number of accepted flits = 34
Average accepted packet length = 5.66667
Total in-flight flits = 29 (2 measured)
===== Time: 50000 =====
Class 0:
Packets read from trace = 299 of 100000000 (0%)
Future packets = 1
Waiting packets = 0
Stalled packets = 252
Packets pending injection = 12
Packets in flight = 10
Minimum packet latency = 53
Average packet latency = 3302.33
Maximum packet latency = 14271
Minimum network latency = 36
Average network latency = 3298
Maximum network latency = 14267
Slowest packet = 18
Minimum flit latency = 29
Average flit latency = 7623.9
Maximum flit latency = 40071
Slowest flit = 7
Minimum fragmentation = 0
Average fragmentation = 3256.78
Maximum fragmentation = 14181
Minimum injected packet rate = 0 (at node 0)
Average injected packet rate = 1.25e-05
Maximum injected packet rate = 0.0004 (at node 26)
Minimum accepted packet rate = 0 (at node 0)
Average accepted packet rate = 1.09375e-05
Maximum accepted packet rate = 0.00035 (at node 16)
Minimum injected flit rate = 0 (at node 0)
Average injected flit rate = 6.01563e-05
Maximum injected flit rate = 0.002 (at node 26)
Minimum accepted flit rate = 0 (at node 0)
Average accepted flit rate = 5.46875e-05
Maximum accepted flit rate = 0.0019 (at node 16)
Total number of injected packets = 16
Total number of injected flits = 77
Average injected packet length = 4.8125
Total number of accepted packets = 14
Total number of accepted flits = 70
Average accepted packet length = 5
Total in-flight flits = 34 (23 measured)
===== Time: 60000 =====
Class 0:
Packets read from trace = 341 of 100000000 (0%)
Future packets = 1
Waiting packets = 0
Stalled packets = 286
Packets pending injection = 16
Packets in flight = 11
Minimum packet latency = 53
Average packet latency = 5044.45
Maximum packet latency = 14271
Minimum network latency = 36
Average network latency = 5040.64
Maximum network latency = 14267
Slowest packet = 18
Minimum flit latency = 29
Average flit latency = 9890.87
Maximum flit latency = 44214
Slowest flit = 67
Minimum fragmentation = 0
Average fragmentation = 4918.82
Maximum fragmentation = 14181
Minimum injected packet rate = 0 (at node 0)
Average injected packet rate = 1.09375e-05
Maximum injected packet rate = 0.000266667 (at node 26)
Minimum accepted packet rate = 0 (at node 0)
Average accepted packet rate = 8.85417e-06
Maximum accepted packet rate = 0.000266667 (at node 16)
Minimum injected flit rate = 0 (at node 0)
Average injected flit rate = 5.05208e-05
Maximum injected flit rate = 0.00133333 (at node 26)
Minimum accepted flit rate = 0 (at node 0)
Average accepted flit rate = 4.53125e-05
Maximum accepted flit rate = 0.00133333 (at node 16)
Total number of injected packets = 21
Total number of injected flits = 97
Average injected packet length = 4.61905
Total number of accepted packets = 17
Total number of accepted flits = 87
Average accepted packet length = 5.11765
Total in-flight flits = 33 (29 measured)
===== Time: 70000 =====
Class 0:
Packets read from trace = 409 of 100000000 (0%)
Future packets = 1
Waiting packets = 0
Stalled packets = 342
Packets pending injection = 20
Packets in flight = 16
Minimum packet latency = 44
Average packet latency = 8140.85
Maximum packet latency = 50298
Minimum network latency = 36
Average network latency = 4963.31
Maximum network latency = 14267
Slowest packet = 18
Minimum flit latency = 29
Average flit latency = 9004.02
Maximum flit latency = 44214
Slowest flit = 67
Minimum fragmentation = 0
Average fragmentation = 4178.23
Maximum fragmentation = 14181
Minimum injected packet rate = 0 (at node 0)
Average injected packet rate = 1.09375e-05
Maximum injected packet rate = 0.00025 (at node 26)
Minimum accepted packet rate = 0 (at node 0)
Average accepted packet rate = 7.8125e-06
Maximum accepted packet rate = 0.000225 (at node 16)
Minimum injected flit rate = 0 (at node 0)
Average injected flit rate = 5.11719e-05
Maximum injected flit rate = 0.001225 (at node 26)
Minimum accepted flit rate = 0 (at node 0)
Average accepted flit rate = 4.17969e-05
Maximum accepted flit rate = 0.001125 (at node 16)
Total number of injected packets = 28
Total number of injected flits = 131
Average injected packet length = 4.67857
Total number of accepted packets = 20
Total number of accepted flits = 107
Average accepted packet length = 5.35
Total in-flight flits = 53 (52 measured)
===== Time: 80000 =====
Class 0:
Packets read from trace = 449 of 100000000 (0%)
Future packets = 1
Waiting packets = 0
Stalled packets = 381
Packets pending injection = 20
Packets in flight = 17
Minimum packet latency = 44
Average packet latency = 8140.85
Maximum packet latency = 50298
Minimum network latency = 36
Average network latency = 4963.31
Maximum network latency = 14267
Slowest packet = 18
Minimum flit latency = 29
Average flit latency = 9004.02
Maximum flit latency = 44214
Slowest flit = 67
Minimum fragmentation = 0
Average fragmentation = 4178.23
Maximum fragmentation = 14181
Minimum injected packet rate = 0 (at node 0)
Average injected packet rate = 9.0625e-06
Maximum injected packet rate = 0.0002 (at node 26)
Minimum accepted packet rate = 0 (at node 0)
Average accepted packet rate = 6.25e-06
Maximum accepted packet rate = 0.00018 (at node 16)
Minimum injected flit rate = 0 (at node 0)
Average injected flit rate = 4.25e-05
Maximum injected flit rate = 0.00098 (at node 26)
Minimum accepted flit rate = 0 (at node 0)
Average accepted flit rate = 3.34375e-05
Maximum accepted flit rate = 0.0009 (at node 16)
Total number of injected packets = 29
Total number of injected flits = 136
Average injected packet length = 4.68966
Total number of accepted packets = 20
Total number of accepted flits = 107
Average accepted packet length = 5.35
Total in-flight flits = 58 (57 measured)
===== Time: 90000 =====
Class 0:
Packets read from trace = 479 of 100000000 (0%)
Future packets = 1
Waiting packets = 0
Stalled packets = 407
Packets pending injection = 17
Packets in flight = 22
Minimum packet latency = 44
Average packet latency = 14304.9
Maximum packet latency = 66313
Minimum network latency = 36
Average network latency = 8413.13
Maximum network latency = 42426
Slowest packet = 18
Minimum flit latency = 29
Average flit latency = 10364.2
Maximum flit latency = 44214
Slowest flit = 67
Minimum fragmentation = 0
Average fragmentation = 7645.87
Maximum fragmentation = 41379
Minimum injected packet rate = 0 (at node 0)
Average injected packet rate = 9.11458e-06
Maximum injected packet rate = 0.000166667 (at node 26)
Minimum accepted packet rate = 0 (at node 0)
Average accepted packet rate = 5.72917e-06
Maximum accepted packet rate = 0.00015 (at node 16)
Minimum injected flit rate = 0 (at node 0)
Average injected flit rate = 4.32292e-05
Maximum injected flit rate = 0.000816667 (at node 26)
Minimum accepted flit rate = 0 (at node 0)
Average accepted flit rate = 3.09896e-05
Maximum accepted flit rate = 0.00075 (at node 16)
Total number of injected packets = 35
Total number of injected flits = 166
Average injected packet length = 4.74286
Total number of accepted packets = 22
Total number of accepted flits = 119
Average accepted packet length = 5.40909
Total in-flight flits = 81 (80 measured)
===== Time: 100000 =====
Class 0:
Packets read from trace = 504 of 100000000 (0%)
Future packets = 1
Waiting packets = 0
Stalled packets = 430
Packets pending injection = 19
Packets in flight = 22
Minimum packet latency = 44
Average packet latency = 14304.9
Maximum packet latency = 66313
Minimum network latency = 36
Average network latency = 8413.13
Maximum network latency = 42426
Slowest packet = 18
Minimum flit latency = 29
Average flit latency = 10364.2
Maximum flit latency = 44214
Slowest flit = 67
Minimum fragmentation = 0
Average fragmentation = 7645.87
Maximum fragmentation = 41379
Minimum injected packet rate = 0 (at node 0)
Average injected packet rate = 7.8125e-06
Maximum injected packet rate = 0.000142857 (at node 26)
Minimum accepted packet rate = 0 (at node 0)
Average accepted packet rate = 4.91071e-06
Maximum accepted packet rate = 0.000128571 (at node 16)
Minimum injected flit rate = 0 (at node 0)
Average injected flit rate = 3.70536e-05
Maximum injected flit rate = 0.0007 (at node 26)
Minimum accepted flit rate = 0 (at node 0)
Average accepted flit rate = 2.65625e-05
Maximum accepted flit rate = 0.000642857 (at node 16)
Total number of injected packets = 35
Total number of injected flits = 166
Average injected packet length = 4.74286
Total number of accepted packets = 22
Total number of accepted flits = 119
Average accepted packet length = 5.40909
Total in-flight flits = 81 (80 measured)
===== Time: 110000 =====
Class 0:
Packets read from trace = 595 of 100000000 (0%)
Future packets = 1
Waiting packets = 0
Stalled packets = 509
Packets pending injection = 30
Packets in flight = 23
Minimum packet latency = 44
Average packet latency = 14304.9
Maximum packet latency = 66313
Minimum network latency = 36
Average network latency = 8413.13
Maximum network latency = 42426
Slowest packet = 18
Minimum flit latency = 29
Average flit latency = 10364.2
Maximum flit latency = 44214
Slowest flit = 67
Minimum fragmentation = 0
Average fragmentation = 7645.87
Maximum fragmentation = 41379
Minimum injected packet rate = 0 (at node 0)
Average injected packet rate = 6.83594e-06
Maximum injected packet rate = 0.000125 (at node 26)
Minimum accepted packet rate = 0 (at node 0)
Average accepted packet rate = 4.29688e-06
Maximum accepted packet rate = 0.0001125 (at node 16)
Minimum injected flit rate = 0 (at node 0)
Average injected flit rate = 3.24219e-05
Maximum injected flit rate = 0.0006125 (at node 26)
Minimum accepted flit rate = 0 (at node 0)
Average accepted flit rate = 2.32422e-05
Maximum accepted flit rate = 0.0005625 (at node 16)
Total number of injected packets = 35
Total number of injected flits = 166
Average injected packet length = 4.74286
Total number of accepted packets = 22
Total number of accepted flits = 119
Average accepted packet length = 5.40909
Total in-flight flits = 86 (85 measured)
===== Time: 120000 =====
Class 0:
Packets read from trace = 624 of 100000000 (0%)
Future packets = 1
Waiting packets = 0
Stalled packets = 534
Packets pending injection = 34
Packets in flight = 23
Minimum packet latency = 44
Average packet latency = 14304.9
Maximum packet latency = 66313
Minimum network latency = 36
Average network latency = 8413.13
Maximum network latency = 42426
Slowest packet = 18
Minimum flit latency = 29
Average flit latency = 10364.2
Maximum flit latency = 44214
Slowest flit = 67
Minimum fragmentation = 0
Average fragmentation = 7645.87
Maximum fragmentation = 41379
Minimum injected packet rate = 0 (at node 0)
Average injected packet rate = 6.07639e-06
Maximum injected packet rate = 0.000111111 (at node 26)
Minimum accepted packet rate = 0 (at node 0)
Average accepted packet rate = 3.81944e-06
Maximum accepted packet rate = 0.0001 (at node 16)
Minimum injected flit rate = 0 (at node 0)
Average injected flit rate = 2.88194e-05
Maximum injected flit rate = 0.000544444 (at node 26)
Minimum accepted flit rate = 0 (at node 0)
Average accepted flit rate = 2.06597e-05
Maximum accepted flit rate = 0.0005 (at node 16)
Total number of injected packets = 35
Total number of injected flits = 166
Average injected packet length = 4.74286
Total number of accepted packets = 22
Total number of accepted flits = 119
Average accepted packet length = 5.40909
Total in-flight flits = 86 (85 measured)
===== Time: 130000 =====
Class 0:
Packets read from trace = 669 of 100000000 (0%)
Future packets = 1
Waiting packets = 0
Stalled packets = 575
Packets pending injection = 38
Packets in flight = 23
Minimum packet latency = 44
Average packet latency = 14304.9
Maximum packet latency = 66313
Minimum network latency = 36
Average network latency = 8413.13
Maximum network latency = 42426
Slowest packet = 18
Minimum flit latency = 29
Average flit latency = 10364.2
Maximum flit latency = 44214
Slowest flit = 67
Minimum fragmentation = 0
Average fragmentation = 7645.87
Maximum fragmentation = 41379
Minimum injected packet rate = 0 (at node 0)
Average injected packet rate = 5.46875e-06
Maximum injected packet rate = 0.0001 (at node 26)
Minimum accepted packet rate = 0 (at node 0)
Average accepted packet rate = 3.4375e-06
Maximum accepted packet rate = 9e-05 (at node 16)
Minimum injected flit rate = 0 (at node 0)
Average injected flit rate = 2.59375e-05
Maximum injected flit rate = 0.00049 (at node 26)
Minimum accepted flit rate = 0 (at node 0)
Average accepted flit rate = 1.85938e-05
Maximum accepted flit rate = 0.00045 (at node 16)
Total number of injected packets = 35
Total number of injected flits = 166
Average injected packet length = 4.74286
Total number of accepted packets = 22
Total number of accepted flits = 119
Average accepted packet length = 5.40909
Total in-flight flits = 86 (85 measured)
Completed measurements after 130000 cycles.
Draining remaining packets ...
Class 0:
Remaining flits: 52 118 119 120 121 122 127 134 135 136 [...] (85 flits)
Measured flits: 118 119 120 121 122 127 134 135 136 137 [...] (84 flits)
Class 0:
Remaining flits: 52 118 119 120 121 122 127 134 135 136 [...] (85 flits)
Measured flits: 118 119 120 121 122 127 134 135 136 137 [...] (84 flits)
Class 0:
Remaining flits: 52 118 119 120 121 122 134 135 136 137 [...] (77 flits)
Measured flits: 118 119 120 121 122 134 135 136 137 138 [...] (76 flits)
Class 0:
Remaining flits: 52 118 119 120 121 122 134 135 136 137 [...] (72 flits)
Measured flits: 118 119 120 121 122 134 135 136 137 138 [...] (71 flits)
Class 0:
Remaining flits: 52 118 119 120 121 122 134 135 136 137 [...] (72 flits)
Measured flits: 118 119 120 121 122 134 135 136 137 138 [...] (71 flits)
Class 0:
Remaining flits: 52 118 119 120 121 122 134 135 136 137 [...] (72 flits)
Measured flits: 118 119 120 121 122 134 135 136 137 138 [...] (71 flits)
Class 0:
Remaining flits: 52 118 119 120 121 122 134 135 136 137 [...] (71 flits)
Measured flits: 118 119 120 121 122 134 135 136 137 138 [...] (70 flits)
Class 0:
Remaining flits: 52 118 119 120 121 122 134 135 136 137 [...] (62 flits)
Measured flits: 118 119 120 121 122 134 135 136 137 138 [...] (61 flits)
Class 0:
Remaining flits: 52 118 119 120 121 122 134 135 136 137 [...] (62 flits)
Measured flits: 118 119 120 121 122 134 135 136 137 138 [...] (61 flits)
Class 0:
Remaining flits: 52 118 119 120 121 122 134 135 136 137 [...] (58 flits)
Measured flits: 118 119 120 121 122 134 135 136 137 138 [...] (57 flits)
Class 0:
Remaining flits: 52 118 119 120 121 122 134 135 136 137 [...] (57 flits)
Measured flits: 118 119 120 121 122 134 135 136 137 138 [...] (56 flits)
Class 0:
Remaining flits: 52 118 119 120 121 122 134 135 136 137 [...] (57 flits)
Measured flits: 118 119 120 121 122 134 135 136 137 138 [...] (56 flits)
Class 0:
Remaining flits: 52 118 119 120 121 122 134 135 136 137 [...] (57 flits)
Measured flits: 118 119 120 121 122 134 135 136 137 138 [...] (56 flits)
Class 0:
Remaining flits: 52 118 119 120 121 122 134 135 136 137 [...] (57 flits)
Measured flits: 118 119 120 121 122 134 135 136 137 138 [...] (56 flits)
Class 0:
Remaining flits: 52 118 119 120 121 122 134 135 136 137 [...] (57 flits)
Measured flits: 118 119 120 121 122 134 135 136 137 138 [...] (56 flits)
Class 0:
Remaining flits: 52 118 119 120 121 122 134 135 136 137 [...] (57 flits)
Measured flits: 118 119 120 121 122 134 135 136 137 138 [...] (56 flits)
Class 0:
Remaining flits: 52 118 119 120 121 122 134 135 136 137 [...] (57 flits)
Measured flits: 118 119 120 121 122 134 135 136 137 138 [...] (56 flits)
Class 0:
Remaining flits: 52 118 119 120 121 122 134 135 136 137 [...] (57 flits)
Measured flits: 118 119 120 121 122 134 135 136 137 138 [...] (56 flits)
Class 0:
Remaining flits: 52 118 119 120 121 122 134 135 136 137 [...] (57 flits)
Measured flits: 118 119 120 121 122 134 135 136 137 138 [...] (56 flits)
Class 0:
Remaining flits: 52 118 119 120 121 122 134 135 136 137 [...] (57 flits)
Measured flits: 118 119 120 121 122 134 135 136 137 138 [...] (56 flits)
Class 0:
Remaining flits: 52 118 119 120 121 122 134 135 136 137 [...] (57 flits)
Measured flits: 118 119 120 121 122 134 135 136 137 138 [...] (56 flits)
Class 0:
Remaining flits: 52 118 119 120 121 122 134 135 136 137 [...] (57 flits)
Measured flits: 118 119 120 121 122 134 135 136 137 138 [...] (56 flits)
Class 0:
Remaining flits: 52 118 119 120 121 122 134 135 136 137 [...] (57 flits)
Measured flits: 118 119 120 121 122 134 135 136 137 138 [...] (56 flits)
Class 0:
Remaining flits: 52 118 119 120 121 122 134 135 136 137 [...] (57 flits)
Measured flits: 118 119 120 121 122 134 135 136 137 138 [...] (56 flits)
Class 0:
Remaining flits: 52 118 119 120 121 122 134 135 136 137 [...] (57 flits)
Measured flits: 118 119 120 121 122 134 135 136 137 138 [...] (56 flits)
Class 0:
Remaining flits: 52 118 119 120 121 122 134 135 136 137 [...] (57 flits)
Measured flits: 118 119 120 121 122 134 135 136 137 138 [...] (56 flits)
Class 0:
Remaining flits: 52 118 119 120 121 122 134 135 136 137 [...] (57 flits)
Measured flits: 118 119 120 121 122 134 135 136 137 138 [...] (56 flits)
Class 0:
Remaining flits: 52 118 119 120 121 122 134 135 136 137 [...] (57 flits)
Measured flits: 118 119 120 121 122 134 135 136 137 138 [...] (56 flits)
Class 0:
Remaining flits: 52 118 119 120 121 122 134 135 136 137 [...] (57 flits)
Measured flits: 118 119 120 121 122 134 135 136 137 138 [...] (56 flits)
Class 0:
Remaining flits: 52 118 119 120 121 122 134 135 136 137 [...] (57 flits)
Measured flits: 118 119 120 121 122 134 135 136 137 138 [...] (56 flits)
Class 0:
Remaining flits: 52 118 119 120 121 122 134 135 136 137 [...] (57 flits)
Measured flits: 118 119 120 121 122 134 135 136 137 138 [...] (56 flits)
Class 0:
Remaining flits: 52 118 119 120 121 122 134 135 136 137 [...] (57 flits)
Measured flits: 118 119 120 121 122 134 135 136 137 138 [...] (56 flits)
Class 0:
Remaining flits: 52 118 119 120 121 122 134 135 136 137 [...] (57 flits)
Measured flits: 118 119 120 121 122 134 135 136 137 138 [...] (56 flits)
Class 0:
Remaining flits: 52 118 119 120 121 122 134 135 136 137 [...] (57 flits)
Measured flits: 118 119 120 121 122 134 135 136 137 138 [...] (56 flits)
Class 0:
Remaining flits: 52 118 119 120 121 122 134 135 136 137 [...] (57 flits)
Measured flits: 118 119 120 121 122 134 135 136 137 138 [...] (56 flits)
Class 0:
Remaining flits: 52 118 119 120 121 122 134 135 136 137 [...] (57 flits)
Measured flits: 118 119 120 121 122 134 135 136 137 138 [...] (56 flits)
Class 0:
Remaining flits: 52 118 119 120 121 122 134 135 136 137 [...] (57 flits)
Measured flits: 118 119 120 121 122 134 135 136 137 138 [...] (56 flits)
Class 0:
Remaining flits: 52 118 119 120 121 122 134 135 136 137 [...] (57 flits)
Measured flits: 118 119 120 121 122 134 135 136 137 138 [...] (56 flits)
Class 0:
Remaining flits: 52 118 119 120 121 122 134 135 136 137 [...] (57 flits)
Measured flits: 118 119 120 121 122 134 135 136 137 138 [...] (56 flits)
Class 0:
Remaining flits: 52 118 119 120 121 122 134 135 136 137 [...] (57 flits)
Measured flits: 118 119 120 121 122 134 135 136 137 138 [...] (56 flits)
Class 0:
Remaining flits: 52 118 119 120 121 122 134 135 136 137 [...] (57 flits)
Measured flits: 118 119 120 121 122 134 135 136 137 138 [...] (56 flits)
Class 0:
Remaining flits: 52 118 119 120 121 122 134 135 136 137 [...] (57 flits)
Measured flits: 118 119 120 121 122 134 135 136 137 138 [...] (56 flits)
Class 0:
Remaining flits: 52 118 119 120 121 122 134 135 136 137 [...] (57 flits)
Measured flits: 118 119 120 121 122 134 135 136 137 138 [...] (56 flits)
Class 0:
Remaining flits: 52 118 119 120 121 122 134 135 136 137 [...] (57 flits)
Measured flits: 118 119 120 121 122 134 135 136 137 138 [...] (56 flits)
Class 0:
Remaining flits: 52 118 119 120 121 122 134 135 136 137 [...] (57 flits)
Measured flits: 118 119 120 121 122 134 135 136 137 138 [...] (56 flits)
Class 0:
Remaining flits: 52 118 119 120 121 122 134 135 136 137 [...] (57 flits)
Measured flits: 118 119 120 121 122 134 135 136 137 138 [...] (56 flits)
Class 0:
Remaining flits: 52 118 119 120 121 122 134 135 136 137 [...] (57 flits)
Measured flits: 118 119 120 121 122 134 135 136 137 138 [...] (56 flits)
Class 0:
Remaining flits: 52 118 119 120 121 122 134 135 136 137 [...] (57 flits)
Measured flits: 118 119 120 121 122 134 135 136 137 138 [...] (56 flits)
Class 0:
Remaining flits: 52 118 119 120 121 122 134 135 136 137 [...] (57 flits)
Measured flits: 118 119 120 121 122 134 135 136 137 138 [...] (56 flits)
Class 0:
Remaining flits: 52 118 119 120 121 122 134 135 136 137 [...] (57 flits)
Measured flits: 118 119 120 121 122 134 135 136 137 138 [...] (56 flits)
Class 0:
Remaining flits: 52 118 119 120 121 122 134 135 136 137 [...] (57 flits)
Measured flits: 118 119 120 121 122 134 135 136 137 138 [...] (56 flits)
Class 0:
Remaining flits: 52 118 119 120 121 122 134 135 136 137 [...] (57 flits)
Measured flits: 118 119 120 121 122 134 135 136 137 138 [...] (56 flits)
Class 0:
Remaining flits: 52 118 119 120 121 122 134 135 136 137 [...] (57 flits)
Measured flits: 118 119 120 121 122 134 135 136 137 138 [...] (56 flits)
Class 0:
Remaining flits: 52 118 119 120 121 122 134 135 136 137 [...] (57 flits)
Measured flits: 118 119 120 121 122 134 135 136 137 138 [...] (56 flits)
Class 0:
Remaining flits: 52 118 119 120 121 122 134 135 136 137 [...] (57 flits)
Measured flits: 118 119 120 121 122 134 135 136 137 138 [...] (56 flits)
Class 0:
Remaining flits: 52 118 119 120 121 122 134 135 136 137 [...] (57 flits)
Measured flits: 118 119 120 121 122 134 135 136 137 138 [...] (56 flits)
Class 0:
Remaining flits: 52 118 119 120 121 122 134 135 136 137 [...] (57 flits)
Measured flits: 118 119 120 121 122 134 135 136 137 138 [...] (56 flits)
Class 0:
Remaining flits: 52 118 119 120 121 122 134 135 136 137 [...] (57 flits)
Measured flits: 118 119 120 121 122 134 135 136 137 138 [...] (56 flits)
Class 0:
Remaining flits: 52 118 119 120 121 122 134 135 136 137 [...] (57 flits)
Measured flits: 118 119 120 121 122 134 135 136 137 138 [...] (56 flits)
Class 0:
Remaining flits: 52 118 119 120 121 122 134 135 136 137 [...] (57 flits)
Measured flits: 118 119 120 121 122 134 135 136 137 138 [...] (56 flits)
Class 0:
Remaining flits: 52 118 119 120 121 122 134 135 136 137 [...] (57 flits)
Measured flits: 118 119 120 121 122 134 135 136 137 138 [...] (56 flits)
Class 0:
Remaining flits: 52 118 119 120 121 122 134 135 136 137 [...] (57 flits)
Measured flits: 118 119 120 121 122 134 135 136 137 138 [...] (56 flits)
Class 0:
Remaining flits: 52 118 119 120 121 122 134 135 136 137 [...] (57 flits)
Measured flits: 118 119 120 121 122 134 135 136 137 138 [...] (56 flits)
Class 0:
Remaining flits: 52 118 119 120 121 122 134 135 136 137 [...] (57 flits)
Measured flits: 118 119 120 121 122 134 135 136 137 138 [...] (56 flits)
Class 0:
Remaining flits: 52 118 119 120 121 122 134 135 136 137 [...] (57 flits)
Measured flits: 118 119 120 121 122 134 135 136 137 138 [...] (56 flits)
Class 0:
Remaining flits: 52 118 119 120 121 122 134 135 136 137 [...] (57 flits)
Measured flits: 118 119 120 121 122 134 135 136 137 138 [...] (56 flits)
Class 0:
Remaining flits: 52 118 119 120 121 122 134 135 136 137 [...] (57 flits)
Measured flits: 118 119 120 121 122 134 135 136 137 138 [...] (56 flits)
Class 0:
Remaining flits: 52 118 119 120 121 122 134 135 136 137 [...] (57 flits)
Measured flits: 118 119 120 121 122 134 135 136 137 138 [...] (56 flits)
Class 0:
Remaining flits: 52 118 119 120 121 122 134 135 136 137 [...] (57 flits)
Measured flits: 118 119 120 121 122 134 135 136 137 138 [...] (56 flits)
Class 0:
Remaining flits: 52 118 119 120 121 122 134 135 136 137 [...] (57 flits)
Measured flits: 118 119 120 121 122 134 135 136 137 138 [...] (56 flits)
Class 0:
Remaining flits: 52 118 119 120 121 122 134 135 136 137 [...] (57 flits)
Measured flits: 118 119 120 121 122 134 135 136 137 138 [...] (56 flits)
Class 0:
Remaining flits: 52 118 119 120 121 122 134 135 136 137 [...] (57 flits)
Measured flits: 118 119 120 121 122 134 135 136 137 138 [...] (56 flits)
Class 0:
Remaining flits: 52 118 119 120 121 122 134 135 136 137 [...] (57 flits)
Measured flits: 118 119 120 121 122 134 135 136 137 138 [...] (56 flits)
Class 0:
Remaining flits: 52 118 119 120 121 122 134 135 136 137 [...] (57 flits)
Measured flits: 118 119 120 121 122 134 135 136 137 138 [...] (56 flits)
Class 0:
Remaining flits: 52 118 119 120 121 122 134 135 136 137 [...] (57 flits)
Measured flits: 118 119 120 121 122 134 135 136 137 138 [...] (56 flits)
Class 0:
Remaining flits: 52 118 119 120 121 122 134 135 136 137 [...] (57 flits)
Measured flits: 118 119 120 121 122 134 135 136 137 138 [...] (56 flits)
Class 0:
Remaining flits: 52 118 119 120 121 122 134 135 136 137 [...] (57 flits)
Measured flits: 118 119 120 121 122 134 135 136 137 138 [...] (56 flits)
Class 0:
Remaining flits: 52 118 119 120 121 122 134 135 136 137 [...] (57 flits)
Measured flits: 118 119 120 121 122 134 135 136 137 138 [...] (56 flits)
Class 0:
Remaining flits: 52 118 119 120 121 122 134 135 136 137 [...] (57 flits)
Measured flits: 118 119 120 121 122 134 135 136 137 138 [...] (56 flits)
Class 0:
Remaining flits: 52 118 119 120 121 122 134 135 136 137 [...] (57 flits)
Measured flits: 118 119 120 121 122 134 135 136 137 138 [...] (56 flits)
Class 0:
Remaining flits: 52 118 119 120 121 122 134 135 136 137 [...] (57 flits)
Measured flits: 118 119 120 121 122 134 135 136 137 138 [...] (56 flits)
Class 0:
Remaining flits: 52 118 119 120 121 122 134 135 136 137 [...] (57 flits)
Measured flits: 118 119 120 121 122 134 135 136 137 138 [...] (56 flits)
Class 0:
Remaining flits: 52 118 119 120 121 122 134 135 136 137 [...] (57 flits)
Measured flits: 118 119 120 121 122 134 135 136 137 138 [...] (56 flits)
Class 0:
Remaining flits: 52 118 119 120 121 122 134 135 136 137 [...] (57 flits)
Measured flits: 118 119 120 121 122 134 135 136 137 138 [...] (56 flits)
Class 0:
Remaining flits: 52 118 119 120 121 122 134 135 136 137 [...] (57 flits)
Measured flits: 118 119 120 121 122 134 135 136 137 138 [...] (56 flits)
Class 0:
Remaining flits: 52 118 119 120 121 122 134 135 136 137 [...] (57 flits)
Measured flits: 118 119 120 121 122 134 135 136 137 138 [...] (56 flits)
Class 0:
Remaining flits: 52 118 119 120 121 122 134 135 136 137 [...] (57 flits)
Measured flits: 118 119 120 121 122 134 135 136 137 138 [...] (56 flits)
Class 0:
Remaining flits: 52 118 119 120 121 122 134 135 136 137 [...] (57 flits)
Measured flits: 118 119 120 121 122 134 135 136 137 138 [...] (56 flits)
Class 0:
Remaining flits: 52 118 119 120 121 122 134 135 136 137 [...] (57 flits)
Measured flits: 118 119 120 121 122 134 135 136 137 138 [...] (56 flits)
Class 0:
Remaining flits: 52 118 119 120 121 122 134 135 136 137 [...] (57 flits)
Measured flits: 118 119 120 121 122 134 135 136 137 138 [...] (56 flits)
Class 0:
Remaining flits: 52 118 119 120 121 122 134 135 136 137 [...] (57 flits)
Measured flits: 118 119 120 121 122 134 135 136 137 138 [...] (56 flits)
Class 0:
Remaining flits: 52 118 119 120 121 122 134 135 136 137 [...] (57 flits)
Measured flits: 118 119 120 121 122 134 135 136 137 138 [...] (56 flits)
Class 0:
Remaining flits: 52 118 119 120 121 122 134 135 136 137 [...] (57 flits)
Measured flits: 118 119 120 121 122 134 135 136 137 138 [...] (56 flits)
Class 0:
Remaining flits: 52 118 119 120 121 122 134 135 136 137 [...] (57 flits)
Measured flits: 118 119 120 121 122 134 135 136 137 138 [...] (56 flits)
Class 0:
Remaining flits: 52 118 119 120 121 122 134 135 136 137 [...] (57 flits)
Measured flits: 118 119 120 121 122 134 135 136 137 138 [...] (56 flits)
Class 0:
Remaining flits: 52 118 119 120 121 122 134 135 136 137 [...] (57 flits)
Measured flits: 118 119 120 121 122 134 135 136 137 138 [...] (56 flits)
Class 0:
Remaining flits: 52 118 119 120 121 122 134 135 136 137 [...] (57 flits)
Measured flits: 118 119 120 121 122 134 135 136 137 138 [...] (56 flits)
Class 0:
Remaining flits: 52 118 119 120 121 122 134 135 136 137 [...] (57 flits)
Measured flits: 118 119 120 121 122 134 135 136 137 138 [...] (56 flits)
Class 0:
Remaining flits: 52 118 119 120 121 122 134 135 136 137 [...] (57 flits)
Measured flits: 118 119 120 121 122 134 135 136 137 138 [...] (56 flits)
Class 0:
Remaining flits: 52 118 119 120 121 122 134 135 136 137 [...] (57 flits)
Measured flits: 118 119 120 121 122 134 135 136 137 138 [...] (56 flits)
Class 0:
Remaining flits: 52 118 119 120 121 122 134 135 136 137 [...] (57 flits)
Measured flits: 118 119 120 121 122 134 135 136 137 138 [...] (56 flits)
Time taken is 131000 cycles
====== Traffic class 0 ======

Total number of flits generated = 255, changed lanes = 0
Overall minimum packet latency = 44 (1 samples)
Overall average packet latency = 39756.1 (1 samples)
Overall maximum packet latency = 98874 (1 samples)
Overall minimum network latency = 36 (1 samples)
Overall average network latency = 26407.7 (1 samples)
Overall maximum network latency = 85485 (1 samples)
Overall minimum flit latency = 29 (1 samples)
Overall average flit latency = 15891 (1 samples)
Overall maximum flit latency = 85478 (1 samples)
Overall minimum fragmentation = 0 (1 samples)
Overall average fragmentation = 16027.2 (1 samples)
Overall maximum fragmentation = 85438 (1 samples)
Overall minimum injected packet rate = 0 (1 samples)
Overall average injected packet rate = 5.46875e-06 (1 samples)
Overall maximum injected packet rate = 0.0001 (1 samples)
Overall minimum accepted packet rate = 0 (1 samples)
Overall average accepted packet rate = 3.4375e-06 (1 samples)
Overall maximum accepted packet rate = 9e-05 (1 samples)
Overall minimum injected flit rate = 0 (1 samples)
Overall average injected flit rate = 2.59375e-05 (1 samples)
Overall maximum injected flit rate = 0.00049 (1 samples)
Overall minimum accepted flit rate = 0 (1 samples)
Overall average accepted flit rate = 1.85938e-05 (1 samples)
Overall maximum accepted flit rate = 0.00045 (1 samples)
Overall average injected packet size = 4.74286 (1 samples)
Overall average accepted packet size = 5.40909 (1 samples)
Overall average hops = 5.68 (1 samples)
Overall throughput of the network (flits/cycle) = 0.00198
Overall throughput of the network (packets/cycle) = 0.00042
Overall workload runtime = 100000 (1 samples)

The distribution of the source packets of size 1 is: 

Source [0] = 0
Source [1] = 0
Source [2] = 3
Source [3] = 0
Source [4] = 0
Source [5] = 0
Source [6] = 0
Source [7] = 0
Source [8] = 0
Source [9] = 0
Source [10] = 0
Source [11] = 0
Source [12] = 0
Source [13] = 0
Source [14] = 0
Source [15] = 0
Source [16] = 0
Source [17] = 0
Source [18] = 0
Source [19] = 0
Source [20] = 1
Source [21] = 0
Source [22] = 0
Source [23] = 0
Source [24] = 0
Source [25] = 0
Source [26] = 0
Source [27] = 0
Source [28] = 0
Source [29] = 0
Source [30] = 0
Source [31] = 0
Source [32] = 0
Source [33] = 0
Source [34] = 0
Source [35] = 0
Source [36] = 0
Source [37] = 0
Source [38] = 0
Source [39] = 0
Source [40] = 1
Source [41] = 0
Source [42] = 0
Source [43] = 0
Source [44] = 0
Source [45] = 0
Source [46] = 0
Source [47] = 0
Source [48] = 0
Source [49] = 0
Source [50] = 0
Source [51] = 0
Source [52] = 0
Source [53] = 0
Source [54] = 0
Source [55] = 0
Source [56] = 0
Source [57] = 0
Source [58] = 0
Source [59] = 0
Source [60] = 0
Source [61] = 0
Source [62] = 0
Source [63] = 0
The distribution of the source packets of size 5 is: 

Source [0] = 0
Source [1] = 0
Source [2] = 2
Source [3] = 0
Source [4] = 0
Source [5] = 0
Source [6] = 0
Source [7] = 0
Source [8] = 0
Source [9] = 0
Source [10] = 0
Source [11] = 0
Source [12] = 0
Source [13] = 0
Source [14] = 9
Source [15] = 0
Source [16] = 0
Source [17] = 0
Source [18] = 0
Source [19] = 0
Source [20] = 2
Source [21] = 0
Source [22] = 4
Source [23] = 7
Source [24] = 9
Source [25] = 5
Source [26] = 11
Source [27] = 0
Source [28] = 1
Source [29] = 0
Source [30] = 0
Source [31] = 0
Source [32] = 0
Source [33] = 0
Source [34] = 0
Source [35] = 0
Source [36] = 0
Source [37] = 0
Source [38] = 0
Source [39] = 0
Source [40] = 0
Source [41] = 0
Source [42] = 0
Source [43] = 0
Source [44] = 0
Source [45] = 0
Source [46] = 0
Source [47] = 0
Source [48] = 0
Source [49] = 0
Source [50] = 0
Source [51] = 0
Source [52] = 0
Source [53] = 0
Source [54] = 0
Source [55] = 0
Source [56] = 0
Source [57] = 0
Source [58] = 0
Source [59] = 0
Source [60] = 0
Source [61] = 0
Source [62] = 0
Source [63] = 0
The distribution of the dest packets of size 1 is: 

dest [0] = 0
dest [1] = 0
dest [2] = 0
dest [3] = 0
dest [4] = 0
dest [5] = 0
dest [6] = 0
dest [7] = 0
dest [8] = 0
dest [9] = 0
dest [10] = 0
dest [11] = 0
dest [12] = 0
dest [13] = 0
dest [14] = 0
dest [15] = 0
dest [16] = 0
dest [17] = 0
dest [18] = 0
dest [19] = 0
dest [20] = 4
dest [21] = 0
dest [22] = 0
dest [23] = 0
dest [24] = 0
dest [25] = 0
dest [26] = 0
dest [27] = 0
dest [28] = 0
dest [29] = 0
dest [30] = 0
dest [31] = 0
dest [32] = 0
dest [33] = 0
dest [34] = 0
dest [35] = 0
dest [36] = 0
dest [37] = 0
dest [38] = 0
dest [39] = 0
dest [40] = 1
dest [41] = 0
dest [42] = 0
dest [43] = 0
dest [44] = 0
dest [45] = 0
dest [46] = 0
dest [47] = 0
dest [48] = 0
dest [49] = 0
dest [50] = 0
dest [51] = 0
dest [52] = 0
dest [53] = 0
dest [54] = 0
dest [55] = 0
dest [56] = 0
dest [57] = 0
dest [58] = 0
dest [59] = 0
dest [60] = 0
dest [61] = 0
dest [62] = 0
dest [63] = 0
The distribution of the dest packets of size 5 is: 

dest [0] = 0
dest [1] = 0
dest [2] = 11
dest [3] = 0
dest [4] = 0
dest [5] = 5
dest [6] = 0
dest [7] = 0
dest [8] = 0
dest [9] = 0
dest [10] = 0
dest [11] = 0
dest [12] = 0
dest [13] = 0
dest [14] = 1
dest [15] = 0
dest [16] = 11
dest [17] = 0
dest [18] = 0
dest [19] = 0
dest [20] = 0
dest [21] = 0
dest [22] = 0
dest [23] = 0
dest [24] = 1
dest [25] = 0
dest [26] = 0
dest [27] = 0
dest [28] = 0
dest [29] = 0
dest [30] = 0
dest [31] = 0
dest [32] = 0
dest [33] = 0
dest [34] = 0
dest [35] = 0
dest [36] = 0
dest [37] = 0
dest [38] = 0
dest [39] = 0
dest [40] = 1
dest [41] = 0
dest [42] = 0
dest [43] = 0
dest [44] = 0
dest [45] = 0
dest [46] = 0
dest [47] = 0
dest [48] = 0
dest [49] = 0
dest [50] = 0
dest [51] = 0
dest [52] = 0
dest [53] = 0
dest [54] = 0
dest [55] = 0
dest [56] = 0
dest [57] = 0
dest [58] = 13
dest [59] = 0
dest [60] = 0
dest [61] = 7
dest [62] = 0
dest [63] = 0Total run time 571.956
