make: Nothing to be done for 'all'.
Master: Running timer....
Master: Running SRC....
BEGIN Configuration File: ./examples/bitrev
// Topology

topology = torus;
k = 4;
n = 2;

// Routing
routing_function = dim_order;

// Flow control
num_vcs     = 4;
vc_buf_size = 4;
wait_for_tail_credit = 0;

// Router architecture
vc_allocator = islip;
sw_allocator = islip;
alloc_iters  = 1;

credit_delay   = 1;
routing_delay  = 1;
vc_alloc_delay = 1;
sw_alloc_delay = 1;

input_speedup     = 1;
output_speedup    = 1;
internal_speedup  = 1.0;

vc_busy_when_full = 0;

// Traffic
traffic = uniform;
packet_size = 1;

// Simulation
sim_type = throughput;

injection_rate = 0.13;

END Configuration File: ./examples/bitrev
===== Time: 1000 =====
Class 0:
Minimum packet latency = 7
Average packet latency = 24.8747
Maximum packet latency = 128
Minimum network latency = 8
Average network latency = 25.8747
Maximum network latency = 129
Slowest packet = 123
Minimum flit latency = 8
Average flit latency = 25.8747
Maximum flit latency = 129
Slowest flit = 123
Minimum fragmentation = 0
Average fragmentation = 0
Maximum fragmentation = 0
Minimum injected packet rate = 0.109 (at node 9)
Average injected packet rate = 0.126812
Maximum injected packet rate = 0.136 (at node 2)
Minimum accepted packet rate = 0.103 (at node 2)
Average accepted packet rate = 0.123188
Maximum accepted packet rate = 0.143 (at node 8)
Minimum injected flit rate = 0.109 (at node 9)
Average injected flit rate = 0.126812
Maximum injected flit rate = 0.136 (at node 2)
Minimum accepted flit rate = 0.103 (at node 2)
Average accepted flit rate = 0.123188
Maximum accepted flit rate = 0.143 (at node 8)
Total number of injected packets = 2029
Total number of injected flits = 2029
Average injected packet length = 1
Total number of accepted packets = 1971
Total number of accepted flits = 1971
Average accepted packet length = 1
Total in-flight flits = 58 (0 measured)
===== Time: 2000 =====
Class 0:
Minimum packet latency = 7
Average packet latency = 27.6723
Maximum packet latency = 417
Minimum network latency = 8
Average network latency = 27.9385
Maximum network latency = 418
Slowest packet = 1656
Minimum flit latency = 8
Average flit latency = 27.9385
Maximum flit latency = 418
Slowest flit = 1656
Minimum fragmentation = 0
Average fragmentation = 0
Maximum fragmentation = 0
Minimum injected packet rate = 0.11 (at node 7)
Average injected packet rate = 0.125594
Maximum injected packet rate = 0.1385 (at node 11)
Minimum accepted packet rate = 0.112 (at node 14)
Average accepted packet rate = 0.123969
Maximum accepted packet rate = 0.1355 (at node 8)
Minimum injected flit rate = 0.11 (at node 7)
Average injected flit rate = 0.125594
Maximum injected flit rate = 0.1385 (at node 11)
Minimum accepted flit rate = 0.112 (at node 14)
Average accepted flit rate = 0.123969
Maximum accepted flit rate = 0.1355 (at node 8)
Total number of injected packets = 4019
Total number of injected flits = 4019
Average injected packet length = 1
Total number of accepted packets = 3967
Total number of accepted flits = 3967
Average accepted packet length = 1
Total in-flight flits = 52 (0 measured)
===== Time: 3000 =====
Class 0:
Minimum packet latency = 7
Average packet latency = 25.0367
Maximum packet latency = 243
Minimum network latency = 8
Average network latency = 26.0367
Maximum network latency = 244
Slowest packet = 3565
Minimum flit latency = 8
Average flit latency = 26.0367
Maximum flit latency = 244
Slowest flit = 3565
Minimum fragmentation = 0
Average fragmentation = 0
Maximum fragmentation = 0
Minimum injected packet rate = 0.117 (at node 0)
Average injected packet rate = 0.131562
Maximum injected packet rate = 0.145 (at node 6)
Minimum accepted packet rate = 0.116 (at node 4)
Average accepted packet rate = 0.131
Maximum accepted packet rate = 0.143 (at node 0)
Minimum injected flit rate = 0.117 (at node 0)
Average injected flit rate = 0.131562
Maximum injected flit rate = 0.145 (at node 6)
Minimum accepted flit rate = 0.116 (at node 4)
Average accepted flit rate = 0.131
Maximum accepted flit rate = 0.143 (at node 0)
Total number of injected packets = 2105
Total number of injected flits = 2105
Average injected packet length = 1
Total number of accepted packets = 2096
Total number of accepted flits = 2096
Average accepted packet length = 1
Total in-flight flits = 61 (0 measured)
===== Time: 4000 =====
Class 0:
Minimum packet latency = 7
Average packet latency = 24.0424
Maximum packet latency = 127
Minimum network latency = 8
Average network latency = 25.0424
Maximum network latency = 128
Slowest packet = 7071
Minimum flit latency = 8
Average flit latency = 25.2324
Maximum flit latency = 128
Slowest flit = 7071
Minimum fragmentation = 0
Average fragmentation = 0
Maximum fragmentation = 0
Minimum injected packet rate = 0.099 (at node 0)
Average injected packet rate = 0.130062
Maximum injected packet rate = 0.165 (at node 15)
Minimum accepted packet rate = 0.113 (at node 4)
Average accepted packet rate = 0.130688
Maximum accepted packet rate = 0.147 (at node 9)
Minimum injected flit rate = 0.099 (at node 0)
Average injected flit rate = 0.130062
Maximum injected flit rate = 0.165 (at node 15)
Minimum accepted flit rate = 0.113 (at node 4)
Average accepted flit rate = 0.130688
Maximum accepted flit rate = 0.147 (at node 9)
Total number of injected packets = 2081
Total number of injected flits = 2081
Average injected packet length = 1
Total number of accepted packets = 2091
Total number of accepted flits = 2091
Average accepted packet length = 1
Total in-flight flits = 51 (51 measured)
===== Time: 5000 =====
Class 0:
Minimum packet latency = 7
Average packet latency = 24.1945
Maximum packet latency = 127
Minimum network latency = 8
Average network latency = 25.1945
Maximum network latency = 128
Slowest packet = 7071
Minimum flit latency = 8
Average flit latency = 25.2885
Maximum flit latency = 128
Slowest flit = 7071
Minimum fragmentation = 0
Average fragmentation = 0
Maximum fragmentation = 0
Minimum injected packet rate = 0.1125 (at node 14)
Average injected packet rate = 0.128906
Maximum injected packet rate = 0.151 (at node 15)
Minimum accepted packet rate = 0.1145 (at node 3)
Average accepted packet rate = 0.129
Maximum accepted packet rate = 0.14 (at node 11)
Minimum injected flit rate = 0.1125 (at node 14)
Average injected flit rate = 0.128906
Maximum injected flit rate = 0.151 (at node 15)
Minimum accepted flit rate = 0.1145 (at node 3)
Average accepted flit rate = 0.129
Maximum accepted flit rate = 0.14 (at node 11)
Total number of injected packets = 4125
Total number of injected flits = 4125
Average injected packet length = 1
Total number of accepted packets = 4128
Total number of accepted flits = 4128
Average accepted packet length = 1
Total in-flight flits = 58 (58 measured)
===== Time: 6000 =====
Class 0:
Minimum packet latency = 7
Average packet latency = 24.4871
Maximum packet latency = 127
Minimum network latency = 8
Average network latency = 25.4871
Maximum network latency = 128
Slowest packet = 7071
Minimum flit latency = 8
Average flit latency = 25.5464
Maximum flit latency = 128
Slowest flit = 7071
Minimum fragmentation = 0
Average fragmentation = 0
Maximum fragmentation = 0
Minimum injected packet rate = 0.119333 (at node 14)
Average injected packet rate = 0.129646
Maximum injected packet rate = 0.147 (at node 15)
Minimum accepted packet rate = 0.118333 (at node 13)
Average accepted packet rate = 0.130021
Maximum accepted packet rate = 0.141667 (at node 9)
Minimum injected flit rate = 0.119333 (at node 14)
Average injected flit rate = 0.129646
Maximum injected flit rate = 0.147 (at node 15)
Minimum accepted flit rate = 0.118333 (at node 13)
Average accepted flit rate = 0.130021
Maximum accepted flit rate = 0.141667 (at node 9)
Total number of injected packets = 6223
Total number of injected flits = 6223
Average injected packet length = 1
Total number of accepted packets = 6241
Total number of accepted flits = 6241
Average accepted packet length = 1
Total in-flight flits = 43 (43 measured)
Draining remaining packets ...
Class 0:
Remaining flits: 12284 12297 12303 12306 12309 12314 12317 12321 12327 12328 [...] (26 flits)
Measured flits: 12284 12297 12303 12306 12309 12314 12317 12321 12327 12328 [...] (26 flits)
Class 0:
Remaining flits: 12328 12329 12330 12334 12337 12339 12342 12343 12345 12346 (10 flits)
Measured flits: 12328 12329 12330 12334 12337 12339 12342 12343 12345 12346 (10 flits)
Class 0:
Remaining flits: 12334 12342 12345 (3 flits)
Measured flits: 12334 12342 12345 (3 flits)
Class 0:
Remaining flits: (0 flits)
Measured flits: (0 flits)
Class 0:
Remaining flits: (0 flits)
Measured flits: (0 flits)
Class 0:
Remaining flits: (0 flits)
Measured flits: (0 flits)
Class 0:
Remaining flits: (0 flits)
Measured flits: (0 flits)
Class 0:
Remaining flits: (0 flits)
Measured flits: (0 flits)
Class 0:
Remaining flits: (0 flits)
Measured flits: (0 flits)
Class 0:
Remaining flits: (0 flits)
Measured flits: (0 flits)
Class 0:
Remaining flits: (0 flits)
Measured flits: (0 flits)
Class 0:
Remaining flits: (0 flits)
Measured flits: (0 flits)
Class 0:
Remaining flits: (0 flits)
Measured flits: (0 flits)
Class 0:
Remaining flits: (0 flits)
Measured flits: (0 flits)
Class 0:
Remaining flits: (0 flits)
Measured flits: (0 flits)
Class 0:
Remaining flits: (0 flits)
Measured flits: (0 flits)
Class 0:
Remaining flits: (0 flits)
Measured flits: (0 flits)
Class 0:
Remaining flits: (0 flits)
Measured flits: (0 flits)
Class 0:
Remaining flits: (0 flits)
Measured flits: (0 flits)
Class 0:
Remaining flits: (0 flits)
Measured flits: (0 flits)
Class 0:
Remaining flits: (0 flits)
Measured flits: (0 flits)
Class 0:
Remaining flits: (0 flits)
Measured flits: (0 flits)
Class 0:
Remaining flits: (0 flits)
Measured flits: (0 flits)
Class 0:
Remaining flits: (0 flits)
Measured flits: (0 flits)
Class 0:
Remaining flits: (0 flits)
Measured flits: (0 flits)
Class 0:
Remaining flits: (0 flits)
Measured flits: (0 flits)
Class 0:
Remaining flits: (0 flits)
Measured flits: (0 flits)
Class 0:
Remaining flits: (0 flits)
Measured flits: (0 flits)
Class 0:
Remaining flits: (0 flits)
Measured flits: (0 flits)
Class 0:
Remaining flits: (0 flits)
Measured flits: (0 flits)
Class 0:
Remaining flits: (0 flits)
Measured flits: (0 flits)
Class 0:
Remaining flits: (0 flits)
Measured flits: (0 flits)
Class 0:
Remaining flits: (0 flits)
Measured flits: (0 flits)
Class 0:
Remaining flits: (0 flits)
Measured flits: (0 flits)
Class 0:
Remaining flits: (0 flits)
Measured flits: (0 flits)
Class 0:
Remaining flits: (0 flits)
Measured flits: (0 flits)
Class 0:
Remaining flits: (0 flits)
Measured flits: (0 flits)
Class 0:
Remaining flits: (0 flits)
Measured flits: (0 flits)
Class 0:
Remaining flits: (0 flits)
Measured flits: (0 flits)
Class 0:
Remaining flits: (0 flits)
Measured flits: (0 flits)
Class 0:
Remaining flits: (0 flits)
Measured flits: (0 flits)
Class 0:
Remaining flits: (0 flits)
Measured flits: (0 flits)
Class 0:
Remaining flits: (0 flits)
Measured flits: (0 flits)
Class 0:
Remaining flits: (0 flits)
Measured flits: (0 flits)
Class 0:
Remaining flits: (0 flits)
Measured flits: (0 flits)
Class 0:
Remaining flits: (0 flits)
Measured flits: (0 flits)
Class 0:
Remaining flits: (0 flits)
Measured flits: (0 flits)
Class 0:
Remaining flits: (0 flits)
Measured flits: (0 flits)
Class 0:
Remaining flits: (0 flits)
Measured flits: (0 flits)
Class 0:
Remaining flits: (0 flits)
Measured flits: (0 flits)
Class 0:
Remaining flits: (0 flits)
Measured flits: (0 flits)
Class 0:
Remaining flits: (0 flits)
Measured flits: (0 flits)
Class 0:
Remaining flits: (0 flits)
Measured flits: (0 flits)
Class 0:
Remaining flits: (0 flits)
Measured flits: (0 flits)
Class 0:
Remaining flits: (0 flits)
Measured flits: (0 flits)
Class 0:
Remaining flits: (0 flits)
Measured flits: (0 flits)
Class 0:
Remaining flits: (0 flits)
Measured flits: (0 flits)
Class 0:
Remaining flits: (0 flits)
Measured flits: (0 flits)
Class 0:
Remaining flits: (0 flits)
Measured flits: (0 flits)
Class 0:
Remaining flits: (0 flits)
Measured flits: (0 flits)
Class 0:
Remaining flits: (0 flits)
Measured flits: (0 flits)
Class 0:
Remaining flits: (0 flits)
Measured flits: (0 flits)
Class 0:
Remaining flits: (0 flits)
Measured flits: (0 flits)
Class 0:
Remaining flits: (0 flits)
Measured flits: (0 flits)
Class 0:
Remaining flits: (0 flits)
Measured flits: (0 flits)
Class 0:
Remaining flits: (0 flits)
Measured flits: (0 flits)
Class 0:
Remaining flits: (0 flits)
Measured flits: (0 flits)
Class 0:
Remaining flits: (0 flits)
Measured flits: (0 flits)
Class 0:
Remaining flits: (0 flits)
Measured flits: (0 flits)
Class 0:
Remaining flits: (0 flits)
Measured flits: (0 flits)
Class 0:
Remaining flits: (0 flits)
Measured flits: (0 flits)
Class 0:
Remaining flits: (0 flits)
Measured flits: (0 flits)
Class 0:
Remaining flits: (0 flits)
Measured flits: (0 flits)
Class 0:
Remaining flits: (0 flits)
Measured flits: (0 flits)
Class 0:
Remaining flits: (0 flits)
Measured flits: (0 flits)
Class 0:
Remaining flits: (0 flits)
Measured flits: (0 flits)
Class 0:
Remaining flits: (0 flits)
Measured flits: (0 flits)
Class 0:
Remaining flits: (0 flits)
Measured flits: (0 flits)
Class 0:
Remaining flits: (0 flits)
Measured flits: (0 flits)
Class 0:
Remaining flits: (0 flits)
Measured flits: (0 flits)
Class 0:
Remaining flits: (0 flits)
Measured flits: (0 flits)
Class 0:
Remaining flits: (0 flits)
Measured flits: (0 flits)
Class 0:
Remaining flits: (0 flits)
Measured flits: (0 flits)
Class 0:
Remaining flits: (0 flits)
Measured flits: (0 flits)
Class 0:
Remaining flits: (0 flits)
Measured flits: (0 flits)
Class 0:
Remaining flits: (0 flits)
Measured flits: (0 flits)
Class 0:
Remaining flits: (0 flits)
Measured flits: (0 flits)
Class 0:
Remaining flits: (0 flits)
Measured flits: (0 flits)
Class 0:
Remaining flits: (0 flits)
Measured flits: (0 flits)
Class 0:
Remaining flits: (0 flits)
Measured flits: (0 flits)
Class 0:
Remaining flits: (0 flits)
Measured flits: (0 flits)
Class 0:
Remaining flits: (0 flits)
Measured flits: (0 flits)
Class 0:
Remaining flits: (0 flits)
Measured flits: (0 flits)
Class 0:
Remaining flits: (0 flits)
Measured flits: (0 flits)
Class 0:
Remaining flits: (0 flits)
Measured flits: (0 flits)
Class 0:
Remaining flits: (0 flits)
Measured flits: (0 flits)
Class 0:
Remaining flits: (0 flits)
Measured flits: (0 flits)
Class 0:
Remaining flits: (0 flits)
Measured flits: (0 flits)
Class 0:
Remaining flits: (0 flits)
Measured flits: (0 flits)
Class 0:
Remaining flits: (0 flits)
Measured flits: (0 flits)
Class 0:
Remaining flits: (0 flits)
Measured flits: (0 flits)
Time taken is 7000 cycles
====== Traffic class 0 ======

Total number of flits generated = 12347, changed lanes = 11811
Overall minimum packet latency = 7 (1 samples)
Overall average packet latency = 24.5072 (1 samples)
Overall maximum packet latency = 127 (1 samples)
Overall minimum network latency = 8 (1 samples)
Overall average network latency = 25.5072 (1 samples)
Overall maximum network latency = 128 (1 samples)
Overall minimum flit latency = 8 (1 samples)
Overall average flit latency = 25.5659 (1 samples)
Overall maximum flit latency = 128 (1 samples)
Overall minimum fragmentation = 0 (1 samples)
Overall average fragmentation = 0 (1 samples)
Overall maximum fragmentation = 0 (1 samples)
Overall minimum injected packet rate = 0.119333 (1 samples)
Overall average injected packet rate = 0.129646 (1 samples)
Overall maximum injected packet rate = 0.147 (1 samples)
Overall minimum accepted packet rate = 0.118333 (1 samples)
Overall average accepted packet rate = 0.130021 (1 samples)
Overall maximum accepted packet rate = 0.141667 (1 samples)
Overall minimum injected flit rate = 0.119333 (1 samples)
Overall average injected flit rate = 0.129646 (1 samples)
Overall maximum injected flit rate = 0.147 (1 samples)
Overall minimum accepted flit rate = 0.118333 (1 samples)
Overall average accepted flit rate = 0.130021 (1 samples)
Overall maximum accepted flit rate = 0.141667 (1 samples)
Overall average injected packet size = 1 (1 samples)
Overall average accepted packet size = 1 (1 samples)
Overall average hops = 3.01302 (1 samples)
Overall throughput of the network (flits/cycle) = 4.11567
Overall throughput of the network (packets/cycle) = 4.11567
Total run time 19.9393
