make: Nothing to be done for 'all'.
Master: Running timer....
Master: Running SRC....
BEGIN Configuration File: ./examples/bitrev
// Topology

topology = torus;
k = 4;
n = 2;

// Routing
routing_function = dim_order;

// Flow control
num_vcs     = 4;
vc_buf_size = 4;
wait_for_tail_credit = 0;

// Router architecture
vc_allocator = islip;
sw_allocator = islip;
alloc_iters  = 1;

credit_delay   = 1;
routing_delay  = 1;
vc_alloc_delay = 1;
sw_alloc_delay = 1;

input_speedup     = 1;
output_speedup    = 1;
internal_speedup  = 1.0;

vc_busy_when_full = 0;

// Traffic
traffic = uniform;
packet_size = 1;

// Simulation
sim_type = throughput;

injection_rate = 0.09;

END Configuration File: ./examples/bitrev
===== Time: 1000 =====
Class 0:
Minimum packet latency = 7
Average packet latency = 24.5644
Maximum packet latency = 184
Minimum network latency = 8
Average network latency = 25.5644
Maximum network latency = 185
Slowest packet = 887
Minimum flit latency = 8
Average flit latency = 25.5644
Maximum flit latency = 185
Slowest flit = 887
Minimum fragmentation = 0
Average fragmentation = 0
Maximum fragmentation = 0
Minimum injected packet rate = 0.074 (at node 8)
Average injected packet rate = 0.085875
Maximum injected packet rate = 0.097 (at node 4)
Minimum accepted packet rate = 0.065 (at node 14)
Average accepted packet rate = 0.0839375
Maximum accepted packet rate = 0.102 (at node 15)
Minimum injected flit rate = 0.074 (at node 8)
Average injected flit rate = 0.085875
Maximum injected flit rate = 0.097 (at node 4)
Minimum accepted flit rate = 0.065 (at node 14)
Average accepted flit rate = 0.0839375
Maximum accepted flit rate = 0.102 (at node 15)
Total number of injected packets = 1374
Total number of injected flits = 1374
Average injected packet length = 1
Total number of accepted packets = 1343
Total number of accepted flits = 1343
Average accepted packet length = 1
Total in-flight flits = 31 (0 measured)
===== Time: 2000 =====
Class 0:
Minimum packet latency = 7
Average packet latency = 25.4169
Maximum packet latency = 309
Minimum network latency = 8
Average network latency = 26.4169
Maximum network latency = 310
Slowest packet = 1792
Minimum flit latency = 8
Average flit latency = 26.4169
Maximum flit latency = 310
Slowest flit = 1792
Minimum fragmentation = 0
Average fragmentation = 0
Maximum fragmentation = 0
Minimum injected packet rate = 0.0765 (at node 7)
Average injected packet rate = 0.0856563
Maximum injected packet rate = 0.0945 (at node 4)
Minimum accepted packet rate = 0.0745 (at node 4)
Average accepted packet rate = 0.0844063
Maximum accepted packet rate = 0.0965 (at node 15)
Minimum injected flit rate = 0.0765 (at node 7)
Average injected flit rate = 0.0856563
Maximum injected flit rate = 0.0945 (at node 4)
Minimum accepted flit rate = 0.0745 (at node 4)
Average accepted flit rate = 0.0844063
Maximum accepted flit rate = 0.0965 (at node 15)
Total number of injected packets = 2741
Total number of injected flits = 2741
Average injected packet length = 1
Total number of accepted packets = 2701
Total number of accepted flits = 2701
Average accepted packet length = 1
Total in-flight flits = 40 (0 measured)
===== Time: 3000 =====
Class 0:
Minimum packet latency = 7
Average packet latency = 25.7255
Maximum packet latency = 249
Minimum network latency = 8
Average network latency = 26.7255
Maximum network latency = 250
Slowest packet = 2711
Minimum flit latency = 8
Average flit latency = 26.7255
Maximum flit latency = 250
Slowest flit = 2711
Minimum fragmentation = 0
Average fragmentation = 0
Maximum fragmentation = 0
Minimum injected packet rate = 0.084 (at node 0)
Average injected packet rate = 0.092375
Maximum injected packet rate = 0.105 (at node 6)
Minimum accepted packet rate = 0.077 (at node 10)
Average accepted packet rate = 0.092
Maximum accepted packet rate = 0.109 (at node 7)
Minimum injected flit rate = 0.084 (at node 0)
Average injected flit rate = 0.092375
Maximum injected flit rate = 0.105 (at node 6)
Minimum accepted flit rate = 0.077 (at node 10)
Average accepted flit rate = 0.092
Maximum accepted flit rate = 0.109 (at node 7)
Total number of injected packets = 1478
Total number of injected flits = 1478
Average injected packet length = 1
Total number of accepted packets = 1472
Total number of accepted flits = 1472
Average accepted packet length = 1
Total in-flight flits = 46 (0 measured)
===== Time: 4000 =====
Class 0:
Minimum packet latency = 7
Average packet latency = 24.5061
Maximum packet latency = 100
Minimum network latency = 8
Average network latency = 25.5061
Maximum network latency = 101
Slowest packet = 5323
Minimum flit latency = 8
Average flit latency = 26.0557
Maximum flit latency = 158
Slowest flit = 4003
Minimum fragmentation = 0
Average fragmentation = 0
Maximum fragmentation = 0
Minimum injected packet rate = 0.068 (at node 0)
Average injected packet rate = 0.0895
Maximum injected packet rate = 0.108 (at node 15)
Minimum accepted packet rate = 0.068 (at node 2)
Average accepted packet rate = 0.0898125
Maximum accepted packet rate = 0.116 (at node 0)
Minimum injected flit rate = 0.068 (at node 0)
Average injected flit rate = 0.0895
Maximum injected flit rate = 0.108 (at node 15)
Minimum accepted flit rate = 0.068 (at node 2)
Average accepted flit rate = 0.0898125
Maximum accepted flit rate = 0.116 (at node 0)
Total number of injected packets = 1432
Total number of injected flits = 1432
Average injected packet length = 1
Total number of accepted packets = 1437
Total number of accepted flits = 1437
Average accepted packet length = 1
Total in-flight flits = 41 (41 measured)
===== Time: 5000 =====
Class 0:
Minimum packet latency = 7
Average packet latency = 24.5453
Maximum packet latency = 100
Minimum network latency = 8
Average network latency = 25.5453
Maximum network latency = 101
Slowest packet = 5323
Minimum flit latency = 8
Average flit latency = 25.822
Maximum flit latency = 158
Slowest flit = 4003
Minimum fragmentation = 0
Average fragmentation = 0
Maximum fragmentation = 0
Minimum injected packet rate = 0.0785 (at node 3)
Average injected packet rate = 0.0887813
Maximum injected packet rate = 0.1055 (at node 15)
Minimum accepted packet rate = 0.075 (at node 2)
Average accepted packet rate = 0.089
Maximum accepted packet rate = 0.1005 (at node 0)
Minimum injected flit rate = 0.0785 (at node 3)
Average injected flit rate = 0.0887813
Maximum injected flit rate = 0.1055 (at node 15)
Minimum accepted flit rate = 0.075 (at node 2)
Average accepted flit rate = 0.089
Maximum accepted flit rate = 0.1005 (at node 0)
Total number of injected packets = 2841
Total number of injected flits = 2841
Average injected packet length = 1
Total number of accepted packets = 2848
Total number of accepted flits = 2848
Average accepted packet length = 1
Total in-flight flits = 39 (39 measured)
===== Time: 6000 =====
Class 0:
Minimum packet latency = 7
Average packet latency = 24.7794
Maximum packet latency = 137
Minimum network latency = 8
Average network latency = 25.7794
Maximum network latency = 138
Slowest packet = 7483
Minimum flit latency = 8
Average flit latency = 25.96
Maximum flit latency = 158
Slowest flit = 4003
Minimum fragmentation = 0
Average fragmentation = 0
Maximum fragmentation = 0
Minimum injected packet rate = 0.0836667 (at node 3)
Average injected packet rate = 0.0892292
Maximum injected packet rate = 0.104 (at node 15)
Minimum accepted packet rate = 0.0806667 (at node 2)
Average accepted packet rate = 0.089625
Maximum accepted packet rate = 0.100333 (at node 8)
Minimum injected flit rate = 0.0836667 (at node 3)
Average injected flit rate = 0.0892292
Maximum injected flit rate = 0.104 (at node 15)
Minimum accepted flit rate = 0.0806667 (at node 2)
Average accepted flit rate = 0.089625
Maximum accepted flit rate = 0.100333 (at node 8)
Total number of injected packets = 4283
Total number of injected flits = 4283
Average injected packet length = 1
Total number of accepted packets = 4302
Total number of accepted flits = 4302
Average accepted packet length = 1
Total in-flight flits = 27 (27 measured)
Draining remaining packets ...
Class 0:
Remaining flits: 8478 8482 8486 8487 8488 8490 8491 8492 8493 8494 [...] (16 flits)
Measured flits: 8478 8482 8486 8487 8488 8490 8491 8492 8493 8494 [...] (16 flits)
Class 0:
Remaining flits: 8482 8486 8487 8490 8492 8494 8496 8497 8498 8499 [...] (11 flits)
Measured flits: 8482 8486 8487 8490 8492 8494 8496 8497 8498 8499 [...] (11 flits)
Class 0:
Remaining flits: (0 flits)
Measured flits: (0 flits)
Class 0:
Remaining flits: (0 flits)
Measured flits: (0 flits)
Class 0:
Remaining flits: (0 flits)
Measured flits: (0 flits)
Class 0:
Remaining flits: (0 flits)
Measured flits: (0 flits)
Class 0:
Remaining flits: (0 flits)
Measured flits: (0 flits)
Class 0:
Remaining flits: (0 flits)
Measured flits: (0 flits)
Class 0:
Remaining flits: (0 flits)
Measured flits: (0 flits)
Class 0:
Remaining flits: (0 flits)
Measured flits: (0 flits)
Class 0:
Remaining flits: (0 flits)
Measured flits: (0 flits)
Class 0:
Remaining flits: (0 flits)
Measured flits: (0 flits)
Class 0:
Remaining flits: (0 flits)
Measured flits: (0 flits)
Class 0:
Remaining flits: (0 flits)
Measured flits: (0 flits)
Class 0:
Remaining flits: (0 flits)
Measured flits: (0 flits)
Class 0:
Remaining flits: (0 flits)
Measured flits: (0 flits)
Class 0:
Remaining flits: (0 flits)
Measured flits: (0 flits)
Class 0:
Remaining flits: (0 flits)
Measured flits: (0 flits)
Class 0:
Remaining flits: (0 flits)
Measured flits: (0 flits)
Class 0:
Remaining flits: (0 flits)
Measured flits: (0 flits)
Class 0:
Remaining flits: (0 flits)
Measured flits: (0 flits)
Class 0:
Remaining flits: (0 flits)
Measured flits: (0 flits)
Class 0:
Remaining flits: (0 flits)
Measured flits: (0 flits)
Class 0:
Remaining flits: (0 flits)
Measured flits: (0 flits)
Class 0:
Remaining flits: (0 flits)
Measured flits: (0 flits)
Class 0:
Remaining flits: (0 flits)
Measured flits: (0 flits)
Class 0:
Remaining flits: (0 flits)
Measured flits: (0 flits)
Class 0:
Remaining flits: (0 flits)
Measured flits: (0 flits)
Class 0:
Remaining flits: (0 flits)
Measured flits: (0 flits)
Class 0:
Remaining flits: (0 flits)
Measured flits: (0 flits)
Class 0:
Remaining flits: (0 flits)
Measured flits: (0 flits)
Class 0:
Remaining flits: (0 flits)
Measured flits: (0 flits)
Class 0:
Remaining flits: (0 flits)
Measured flits: (0 flits)
Class 0:
Remaining flits: (0 flits)
Measured flits: (0 flits)
Class 0:
Remaining flits: (0 flits)
Measured flits: (0 flits)
Class 0:
Remaining flits: (0 flits)
Measured flits: (0 flits)
Class 0:
Remaining flits: (0 flits)
Measured flits: (0 flits)
Class 0:
Remaining flits: (0 flits)
Measured flits: (0 flits)
Class 0:
Remaining flits: (0 flits)
Measured flits: (0 flits)
Class 0:
Remaining flits: (0 flits)
Measured flits: (0 flits)
Class 0:
Remaining flits: (0 flits)
Measured flits: (0 flits)
Class 0:
Remaining flits: (0 flits)
Measured flits: (0 flits)
Class 0:
Remaining flits: (0 flits)
Measured flits: (0 flits)
Class 0:
Remaining flits: (0 flits)
Measured flits: (0 flits)
Class 0:
Remaining flits: (0 flits)
Measured flits: (0 flits)
Class 0:
Remaining flits: (0 flits)
Measured flits: (0 flits)
Class 0:
Remaining flits: (0 flits)
Measured flits: (0 flits)
Class 0:
Remaining flits: (0 flits)
Measured flits: (0 flits)
Class 0:
Remaining flits: (0 flits)
Measured flits: (0 flits)
Class 0:
Remaining flits: (0 flits)
Measured flits: (0 flits)
Class 0:
Remaining flits: (0 flits)
Measured flits: (0 flits)
Class 0:
Remaining flits: (0 flits)
Measured flits: (0 flits)
Class 0:
Remaining flits: (0 flits)
Measured flits: (0 flits)
Class 0:
Remaining flits: (0 flits)
Measured flits: (0 flits)
Class 0:
Remaining flits: (0 flits)
Measured flits: (0 flits)
Class 0:
Remaining flits: (0 flits)
Measured flits: (0 flits)
Class 0:
Remaining flits: (0 flits)
Measured flits: (0 flits)
Class 0:
Remaining flits: (0 flits)
Measured flits: (0 flits)
Class 0:
Remaining flits: (0 flits)
Measured flits: (0 flits)
Class 0:
Remaining flits: (0 flits)
Measured flits: (0 flits)
Class 0:
Remaining flits: (0 flits)
Measured flits: (0 flits)
Class 0:
Remaining flits: (0 flits)
Measured flits: (0 flits)
Class 0:
Remaining flits: (0 flits)
Measured flits: (0 flits)
Class 0:
Remaining flits: (0 flits)
Measured flits: (0 flits)
Class 0:
Remaining flits: (0 flits)
Measured flits: (0 flits)
Class 0:
Remaining flits: (0 flits)
Measured flits: (0 flits)
Class 0:
Remaining flits: (0 flits)
Measured flits: (0 flits)
Class 0:
Remaining flits: (0 flits)
Measured flits: (0 flits)
Class 0:
Remaining flits: (0 flits)
Measured flits: (0 flits)
Class 0:
Remaining flits: (0 flits)
Measured flits: (0 flits)
Class 0:
Remaining flits: (0 flits)
Measured flits: (0 flits)
Class 0:
Remaining flits: (0 flits)
Measured flits: (0 flits)
Class 0:
Remaining flits: (0 flits)
Measured flits: (0 flits)
Class 0:
Remaining flits: (0 flits)
Measured flits: (0 flits)
Class 0:
Remaining flits: (0 flits)
Measured flits: (0 flits)
Class 0:
Remaining flits: (0 flits)
Measured flits: (0 flits)
Class 0:
Remaining flits: (0 flits)
Measured flits: (0 flits)
Class 0:
Remaining flits: (0 flits)
Measured flits: (0 flits)
Class 0:
Remaining flits: (0 flits)
Measured flits: (0 flits)
Class 0:
Remaining flits: (0 flits)
Measured flits: (0 flits)
Class 0:
Remaining flits: (0 flits)
Measured flits: (0 flits)
Class 0:
Remaining flits: (0 flits)
Measured flits: (0 flits)
Class 0:
Remaining flits: (0 flits)
Measured flits: (0 flits)
Class 0:
Remaining flits: (0 flits)
Measured flits: (0 flits)
Class 0:
Remaining flits: (0 flits)
Measured flits: (0 flits)
Class 0:
Remaining flits: (0 flits)
Measured flits: (0 flits)
Class 0:
Remaining flits: (0 flits)
Measured flits: (0 flits)
Class 0:
Remaining flits: (0 flits)
Measured flits: (0 flits)
Class 0:
Remaining flits: (0 flits)
Measured flits: (0 flits)
Class 0:
Remaining flits: (0 flits)
Measured flits: (0 flits)
Class 0:
Remaining flits: (0 flits)
Measured flits: (0 flits)
Class 0:
Remaining flits: (0 flits)
Measured flits: (0 flits)
Class 0:
Remaining flits: (0 flits)
Measured flits: (0 flits)
Class 0:
Remaining flits: (0 flits)
Measured flits: (0 flits)
Class 0:
Remaining flits: (0 flits)
Measured flits: (0 flits)
Class 0:
Remaining flits: (0 flits)
Measured flits: (0 flits)
Class 0:
Remaining flits: (0 flits)
Measured flits: (0 flits)
Class 0:
Remaining flits: (0 flits)
Measured flits: (0 flits)
Class 0:
Remaining flits: (0 flits)
Measured flits: (0 flits)
Class 0:
Remaining flits: (0 flits)
Measured flits: (0 flits)
Class 0:
Remaining flits: (0 flits)
Measured flits: (0 flits)
Time taken is 7000 cycles
====== Traffic class 0 ======

Total number of flits generated = 8502, changed lanes = 8064
Overall minimum packet latency = 7 (1 samples)
Overall average packet latency = 24.7943 (1 samples)
Overall maximum packet latency = 137 (1 samples)
Overall minimum network latency = 8 (1 samples)
Overall average network latency = 25.7943 (1 samples)
Overall maximum network latency = 138 (1 samples)
Overall minimum flit latency = 8 (1 samples)
Overall average flit latency = 25.9737 (1 samples)
Overall maximum flit latency = 158 (1 samples)
Overall minimum fragmentation = 0 (1 samples)
Overall average fragmentation = 0 (1 samples)
Overall maximum fragmentation = 0 (1 samples)
Overall minimum injected packet rate = 0.0836667 (1 samples)
Overall average injected packet rate = 0.0892292 (1 samples)
Overall maximum injected packet rate = 0.104 (1 samples)
Overall minimum accepted packet rate = 0.0806667 (1 samples)
Overall average accepted packet rate = 0.089625 (1 samples)
Overall maximum accepted packet rate = 0.100333 (1 samples)
Overall minimum injected flit rate = 0.0836667 (1 samples)
Overall average injected flit rate = 0.0892292 (1 samples)
Overall maximum injected flit rate = 0.104 (1 samples)
Overall minimum accepted flit rate = 0.0806667 (1 samples)
Overall average accepted flit rate = 0.089625 (1 samples)
Overall maximum accepted flit rate = 0.100333 (1 samples)
Overall average injected packet size = 1 (1 samples)
Overall average accepted packet size = 1 (1 samples)
Overall average hops = 3.01821 (1 samples)
Overall throughput of the network (flits/cycle) = 2.834
Overall throughput of the network (packets/cycle) = 2.834
Total run time 11.062
