make: Nothing to be done for 'all'.
Master: Running timer....
Master: Running SRC....
BEGIN Configuration File: ./examples/bitrev
// Topology

topology = torus;
k = 4;
n = 2;

// Routing
routing_function = dim_order;

// Flow control
num_vcs     = 4;
vc_buf_size = 4;
wait_for_tail_credit = 0;

// Router architecture
vc_allocator = islip;
sw_allocator = islip;
alloc_iters  = 1;

credit_delay   = 1;
routing_delay  = 1;
vc_alloc_delay = 1;
sw_alloc_delay = 1;

input_speedup     = 1;
output_speedup    = 1;
internal_speedup  = 1.0;

vc_busy_when_full = 0;

// Traffic
traffic = uniform;
packet_size = 1;

// Simulation
sim_type = throughput;

injection_rate = 0.25;

END Configuration File: ./examples/bitrev
===== Time: 1000 =====
Class 0:
Minimum packet latency = 7
Average packet latency = 26.2997
Maximum packet latency = 113
Minimum network latency = 8
Average network latency = 27.2997
Maximum network latency = 114
Slowest packet = 3087
Minimum flit latency = 8
Average flit latency = 27.2997
Maximum flit latency = 114
Slowest flit = 3087
Minimum fragmentation = 0
Average fragmentation = 0
Maximum fragmentation = 0
Minimum injected packet rate = 0.218 (at node 9)
Average injected packet rate = 0.24325
Maximum injected packet rate = 0.263 (at node 10)
Minimum accepted packet rate = 0.219 (at node 4)
Average accepted packet rate = 0.237563
Maximum accepted packet rate = 0.277 (at node 7)
Minimum injected flit rate = 0.218 (at node 9)
Average injected flit rate = 0.24325
Maximum injected flit rate = 0.263 (at node 10)
Minimum accepted flit rate = 0.219 (at node 4)
Average accepted flit rate = 0.237563
Maximum accepted flit rate = 0.277 (at node 7)
Total number of injected packets = 3892
Total number of injected flits = 3892
Average injected packet length = 1
Total number of accepted packets = 3801
Total number of accepted flits = 3801
Average accepted packet length = 1
Total in-flight flits = 91 (0 measured)
===== Time: 2000 =====
Class 0:
Minimum packet latency = 7
Average packet latency = 26.0091
Maximum packet latency = 113
Minimum network latency = 8
Average network latency = 27.0091
Maximum network latency = 114
Slowest packet = 3087
Minimum flit latency = 8
Average flit latency = 27.0091
Maximum flit latency = 114
Slowest flit = 3087
Minimum fragmentation = 0
Average fragmentation = 0
Maximum fragmentation = 0
Minimum injected packet rate = 0.2255 (at node 9)
Average injected packet rate = 0.24475
Maximum injected packet rate = 0.263 (at node 2)
Minimum accepted packet rate = 0.222 (at node 4)
Average accepted packet rate = 0.24125
Maximum accepted packet rate = 0.281 (at node 7)
Minimum injected flit rate = 0.2255 (at node 9)
Average injected flit rate = 0.24475
Maximum injected flit rate = 0.263 (at node 2)
Minimum accepted flit rate = 0.222 (at node 4)
Average accepted flit rate = 0.24125
Maximum accepted flit rate = 0.281 (at node 7)
Total number of injected packets = 7832
Total number of injected flits = 7832
Average injected packet length = 1
Total number of accepted packets = 7720
Total number of accepted flits = 7720
Average accepted packet length = 1
Total in-flight flits = 112 (0 measured)
===== Time: 3000 =====
Class 0:
Minimum packet latency = 7
Average packet latency = 26.1738
Maximum packet latency = 88
Minimum network latency = 8
Average network latency = 27.1738
Maximum network latency = 89
Slowest packet = 8804
Minimum flit latency = 8
Average flit latency = 27.1738
Maximum flit latency = 89
Slowest flit = 8804
Minimum fragmentation = 0
Average fragmentation = 0
Maximum fragmentation = 0
Minimum injected packet rate = 0.238 (at node 4)
Average injected packet rate = 0.253188
Maximum injected packet rate = 0.284 (at node 6)
Minimum accepted packet rate = 0.225 (at node 13)
Average accepted packet rate = 0.252375
Maximum accepted packet rate = 0.27 (at node 8)
Minimum injected flit rate = 0.238 (at node 4)
Average injected flit rate = 0.253188
Maximum injected flit rate = 0.284 (at node 6)
Minimum accepted flit rate = 0.225 (at node 13)
Average accepted flit rate = 0.252375
Maximum accepted flit rate = 0.27 (at node 8)
Total number of injected packets = 4051
Total number of injected flits = 4051
Average injected packet length = 1
Total number of accepted packets = 4038
Total number of accepted flits = 4038
Average accepted packet length = 1
Total in-flight flits = 125 (0 measured)
===== Time: 4000 =====
Class 0:
Minimum packet latency = 7
Average packet latency = 25.9278
Maximum packet latency = 93
Minimum network latency = 8
Average network latency = 26.9278
Maximum network latency = 94
Slowest packet = 12515
Minimum flit latency = 8
Average flit latency = 27.068
Maximum flit latency = 94
Slowest flit = 12515
Minimum fragmentation = 0
Average fragmentation = 0
Maximum fragmentation = 0
Minimum injected packet rate = 0.226 (at node 14)
Average injected packet rate = 0.25175
Maximum injected packet rate = 0.276 (at node 10)
Minimum accepted packet rate = 0.235 (at node 0)
Average accepted packet rate = 0.252875
Maximum accepted packet rate = 0.274 (at node 10)
Minimum injected flit rate = 0.226 (at node 14)
Average injected flit rate = 0.25175
Maximum injected flit rate = 0.276 (at node 10)
Minimum accepted flit rate = 0.235 (at node 0)
Average accepted flit rate = 0.252875
Maximum accepted flit rate = 0.274 (at node 10)
Total number of injected packets = 4028
Total number of injected flits = 4028
Average injected packet length = 1
Total number of accepted packets = 4046
Total number of accepted flits = 4046
Average accepted packet length = 1
Total in-flight flits = 107 (107 measured)
===== Time: 5000 =====
Class 0:
Minimum packet latency = 7
Average packet latency = 26.16
Maximum packet latency = 104
Minimum network latency = 8
Average network latency = 27.16
Maximum network latency = 105
Slowest packet = 16967
Minimum flit latency = 8
Average flit latency = 27.2272
Maximum flit latency = 105
Slowest flit = 16967
Minimum fragmentation = 0
Average fragmentation = 0
Maximum fragmentation = 0
Minimum injected packet rate = 0.233 (at node 14)
Average injected packet rate = 0.2495
Maximum injected packet rate = 0.2595 (at node 12)
Minimum accepted packet rate = 0.224 (at node 4)
Average accepted packet rate = 0.250031
Maximum accepted packet rate = 0.2805 (at node 10)
Minimum injected flit rate = 0.233 (at node 14)
Average injected flit rate = 0.2495
Maximum injected flit rate = 0.2595 (at node 12)
Minimum accepted flit rate = 0.224 (at node 4)
Average accepted flit rate = 0.250031
Maximum accepted flit rate = 0.2805 (at node 10)
Total number of injected packets = 7984
Total number of injected flits = 7984
Average injected packet length = 1
Total number of accepted packets = 8001
Total number of accepted flits = 8001
Average accepted packet length = 1
Total in-flight flits = 108 (108 measured)
===== Time: 6000 =====
Class 0:
Minimum packet latency = 7
Average packet latency = 26.7819
Maximum packet latency = 295
Minimum network latency = 8
Average network latency = 27.7055
Maximum network latency = 296
Slowest packet = 22587
Minimum flit latency = 8
Average flit latency = 27.7447
Maximum flit latency = 296
Slowest flit = 22587
Minimum fragmentation = 0
Average fragmentation = 0
Maximum fragmentation = 0
Minimum injected packet rate = 0.236667 (at node 6)
Average injected packet rate = 0.250271
Maximum injected packet rate = 0.259667 (at node 13)
Minimum accepted packet rate = 0.227333 (at node 4)
Average accepted packet rate = 0.250167
Maximum accepted packet rate = 0.265667 (at node 6)
Minimum injected flit rate = 0.236667 (at node 6)
Average injected flit rate = 0.250271
Maximum injected flit rate = 0.259667 (at node 13)
Minimum accepted flit rate = 0.227333 (at node 4)
Average accepted flit rate = 0.250167
Maximum accepted flit rate = 0.265667 (at node 6)
Total number of injected packets = 12013
Total number of injected flits = 12013
Average injected packet length = 1
Total number of accepted packets = 12008
Total number of accepted flits = 12008
Average accepted packet length = 1
Total in-flight flits = 130 (130 measured)
Draining remaining packets ...
Class 0:
Remaining flits: 23131 23173 23212 23233 23236 23704 23728 23747 23760 23764 [...] (79 flits)
Measured flits: 23131 23173 23212 23233 23236 23704 23728 23747 23760 23764 [...] (79 flits)
Class 0:
Remaining flits: 23212 23236 23704 23728 23760 23764 23773 23781 23786 23803 [...] (48 flits)
Measured flits: 23212 23236 23704 23728 23760 23764 23773 23781 23786 23803 [...] (48 flits)
Class 0:
Remaining flits: 23236 23773 23781 23808 23820 23830 23836 23841 23845 23848 [...] (20 flits)
Measured flits: 23236 23773 23781 23808 23820 23830 23836 23841 23845 23848 [...] (20 flits)
Class 0:
Remaining flits: 23808 23830 23848 23858 23860 23873 23881 23887 23891 (9 flits)
Measured flits: 23808 23830 23848 23858 23860 23873 23881 23887 23891 (9 flits)
Class 0:
Remaining flits: 23830 23848 23860 23873 23887 23891 (6 flits)
Measured flits: 23830 23848 23860 23873 23887 23891 (6 flits)
Class 0:
Remaining flits: 23860 23873 23887 23891 (4 flits)
Measured flits: 23860 23873 23887 23891 (4 flits)
Class 0:
Remaining flits: 23887 23891 (2 flits)
Measured flits: 23887 23891 (2 flits)
Class 0:
Remaining flits: 23887 23891 (2 flits)
Measured flits: 23887 23891 (2 flits)
Class 0:
Remaining flits: 23887 23891 (2 flits)
Measured flits: 23887 23891 (2 flits)
Class 0:
Remaining flits: 23887 23891 (2 flits)
Measured flits: 23887 23891 (2 flits)
Class 0:
Remaining flits: 23887 23891 (2 flits)
Measured flits: 23887 23891 (2 flits)
Class 0:
Remaining flits: 23887 23891 (2 flits)
Measured flits: 23887 23891 (2 flits)
Class 0:
Remaining flits: 23887 23891 (2 flits)
Measured flits: 23887 23891 (2 flits)
Class 0:
Remaining flits: 23887 23891 (2 flits)
Measured flits: 23887 23891 (2 flits)
Class 0:
Remaining flits: 23887 23891 (2 flits)
Measured flits: 23887 23891 (2 flits)
Class 0:
Remaining flits: 23887 23891 (2 flits)
Measured flits: 23887 23891 (2 flits)
Class 0:
Remaining flits: 23887 23891 (2 flits)
Measured flits: 23887 23891 (2 flits)
Class 0:
Remaining flits: 23887 23891 (2 flits)
Measured flits: 23887 23891 (2 flits)
Class 0:
Remaining flits: 23887 23891 (2 flits)
Measured flits: 23887 23891 (2 flits)
Class 0:
Remaining flits: 23887 23891 (2 flits)
Measured flits: 23887 23891 (2 flits)
Class 0:
Remaining flits: 23887 23891 (2 flits)
Measured flits: 23887 23891 (2 flits)
Class 0:
Remaining flits: 23887 23891 (2 flits)
Measured flits: 23887 23891 (2 flits)
Class 0:
Remaining flits: 23887 23891 (2 flits)
Measured flits: 23887 23891 (2 flits)
Class 0:
Remaining flits: 23887 23891 (2 flits)
Measured flits: 23887 23891 (2 flits)
Class 0:
Remaining flits: 23887 23891 (2 flits)
Measured flits: 23887 23891 (2 flits)
Class 0:
Remaining flits: 23887 23891 (2 flits)
Measured flits: 23887 23891 (2 flits)
Class 0:
Remaining flits: 23887 23891 (2 flits)
Measured flits: 23887 23891 (2 flits)
Class 0:
Remaining flits: 23887 23891 (2 flits)
Measured flits: 23887 23891 (2 flits)
Class 0:
Remaining flits: 23887 23891 (2 flits)
Measured flits: 23887 23891 (2 flits)
Class 0:
Remaining flits: 23887 23891 (2 flits)
Measured flits: 23887 23891 (2 flits)
Class 0:
Remaining flits: 23887 23891 (2 flits)
Measured flits: 23887 23891 (2 flits)
Class 0:
Remaining flits: 23887 23891 (2 flits)
Measured flits: 23887 23891 (2 flits)
Class 0:
Remaining flits: 23887 23891 (2 flits)
Measured flits: 23887 23891 (2 flits)
Class 0:
Remaining flits: 23887 23891 (2 flits)
Measured flits: 23887 23891 (2 flits)
Class 0:
Remaining flits: 23887 23891 (2 flits)
Measured flits: 23887 23891 (2 flits)
Class 0:
Remaining flits: 23887 23891 (2 flits)
Measured flits: 23887 23891 (2 flits)
Class 0:
Remaining flits: 23887 23891 (2 flits)
Measured flits: 23887 23891 (2 flits)
Class 0:
Remaining flits: 23887 23891 (2 flits)
Measured flits: 23887 23891 (2 flits)
Class 0:
Remaining flits: 23887 23891 (2 flits)
Measured flits: 23887 23891 (2 flits)
Class 0:
Remaining flits: 23887 23891 (2 flits)
Measured flits: 23887 23891 (2 flits)
Class 0:
Remaining flits: 23887 23891 (2 flits)
Measured flits: 23887 23891 (2 flits)
Class 0:
Remaining flits: 23887 23891 (2 flits)
Measured flits: 23887 23891 (2 flits)
Class 0:
Remaining flits: 23887 23891 (2 flits)
Measured flits: 23887 23891 (2 flits)
Class 0:
Remaining flits: 23887 23891 (2 flits)
Measured flits: 23887 23891 (2 flits)
Class 0:
Remaining flits: 23887 23891 (2 flits)
Measured flits: 23887 23891 (2 flits)
Class 0:
Remaining flits: 23887 23891 (2 flits)
Measured flits: 23887 23891 (2 flits)
Class 0:
Remaining flits: 23887 23891 (2 flits)
Measured flits: 23887 23891 (2 flits)
Class 0:
Remaining flits: 23887 23891 (2 flits)
Measured flits: 23887 23891 (2 flits)
Class 0:
Remaining flits: 23887 23891 (2 flits)
Measured flits: 23887 23891 (2 flits)
Class 0:
Remaining flits: 23887 23891 (2 flits)
Measured flits: 23887 23891 (2 flits)
Class 0:
Remaining flits: 23887 23891 (2 flits)
Measured flits: 23887 23891 (2 flits)
Class 0:
Remaining flits: 23887 23891 (2 flits)
Measured flits: 23887 23891 (2 flits)
Class 0:
Remaining flits: 23887 23891 (2 flits)
Measured flits: 23887 23891 (2 flits)
Class 0:
Remaining flits: 23887 23891 (2 flits)
Measured flits: 23887 23891 (2 flits)
Class 0:
Remaining flits: 23887 23891 (2 flits)
Measured flits: 23887 23891 (2 flits)
Class 0:
Remaining flits: 23887 23891 (2 flits)
Measured flits: 23887 23891 (2 flits)
Class 0:
Remaining flits: 23887 23891 (2 flits)
Measured flits: 23887 23891 (2 flits)
Class 0:
Remaining flits: 23887 23891 (2 flits)
Measured flits: 23887 23891 (2 flits)
Class 0:
Remaining flits: 23887 23891 (2 flits)
Measured flits: 23887 23891 (2 flits)
Class 0:
Remaining flits: 23887 23891 (2 flits)
Measured flits: 23887 23891 (2 flits)
Class 0:
Remaining flits: 23887 23891 (2 flits)
Measured flits: 23887 23891 (2 flits)
Class 0:
Remaining flits: 23887 23891 (2 flits)
Measured flits: 23887 23891 (2 flits)
Class 0:
Remaining flits: 23887 23891 (2 flits)
Measured flits: 23887 23891 (2 flits)
Class 0:
Remaining flits: 23887 23891 (2 flits)
Measured flits: 23887 23891 (2 flits)
Class 0:
Remaining flits: 23887 23891 (2 flits)
Measured flits: 23887 23891 (2 flits)
Class 0:
Remaining flits: 23887 23891 (2 flits)
Measured flits: 23887 23891 (2 flits)
Class 0:
Remaining flits: 23887 23891 (2 flits)
Measured flits: 23887 23891 (2 flits)
Class 0:
Remaining flits: 23887 23891 (2 flits)
Measured flits: 23887 23891 (2 flits)
Class 0:
Remaining flits: 23887 23891 (2 flits)
Measured flits: 23887 23891 (2 flits)
Class 0:
Remaining flits: 23887 23891 (2 flits)
Measured flits: 23887 23891 (2 flits)
Class 0:
Remaining flits: 23887 23891 (2 flits)
Measured flits: 23887 23891 (2 flits)
Class 0:
Remaining flits: 23887 23891 (2 flits)
Measured flits: 23887 23891 (2 flits)
Class 0:
Remaining flits: 23887 23891 (2 flits)
Measured flits: 23887 23891 (2 flits)
Class 0:
Remaining flits: 23887 23891 (2 flits)
Measured flits: 23887 23891 (2 flits)
Class 0:
Remaining flits: 23887 23891 (2 flits)
Measured flits: 23887 23891 (2 flits)
Class 0:
Remaining flits: 23887 23891 (2 flits)
Measured flits: 23887 23891 (2 flits)
Class 0:
Remaining flits: 23887 23891 (2 flits)
Measured flits: 23887 23891 (2 flits)
Class 0:
Remaining flits: 23887 23891 (2 flits)
Measured flits: 23887 23891 (2 flits)
Class 0:
Remaining flits: 23887 23891 (2 flits)
Measured flits: 23887 23891 (2 flits)
Class 0:
Remaining flits: 23887 23891 (2 flits)
Measured flits: 23887 23891 (2 flits)
Class 0:
Remaining flits: 23887 23891 (2 flits)
Measured flits: 23887 23891 (2 flits)
Class 0:
Remaining flits: 23887 23891 (2 flits)
Measured flits: 23887 23891 (2 flits)
Class 0:
Remaining flits: 23887 23891 (2 flits)
Measured flits: 23887 23891 (2 flits)
Class 0:
Remaining flits: 23887 23891 (2 flits)
Measured flits: 23887 23891 (2 flits)
Class 0:
Remaining flits: 23887 23891 (2 flits)
Measured flits: 23887 23891 (2 flits)
Class 0:
Remaining flits: 23887 23891 (2 flits)
Measured flits: 23887 23891 (2 flits)
Class 0:
Remaining flits: 23887 23891 (2 flits)
Measured flits: 23887 23891 (2 flits)
Class 0:
Remaining flits: 23887 23891 (2 flits)
Measured flits: 23887 23891 (2 flits)
Class 0:
Remaining flits: 23887 23891 (2 flits)
Measured flits: 23887 23891 (2 flits)
Class 0:
Remaining flits: 23887 23891 (2 flits)
Measured flits: 23887 23891 (2 flits)
Class 0:
Remaining flits: 23887 23891 (2 flits)
Measured flits: 23887 23891 (2 flits)
Class 0:
Remaining flits: 23887 23891 (2 flits)
Measured flits: 23887 23891 (2 flits)
Class 0:
Remaining flits: 23887 23891 (2 flits)
Measured flits: 23887 23891 (2 flits)
Class 0:
Remaining flits: 23887 23891 (2 flits)
Measured flits: 23887 23891 (2 flits)
Class 0:
Remaining flits: 23887 23891 (2 flits)
Measured flits: 23887 23891 (2 flits)
Class 0:
Remaining flits: 23887 23891 (2 flits)
Measured flits: 23887 23891 (2 flits)
Class 0:
Remaining flits: 23887 23891 (2 flits)
Measured flits: 23887 23891 (2 flits)
Class 0:
Remaining flits: 23887 23891 (2 flits)
Measured flits: 23887 23891 (2 flits)
Class 0:
Remaining flits: 23887 23891 (2 flits)
Measured flits: 23887 23891 (2 flits)
Class 0:
Remaining flits: 23887 23891 (2 flits)
Measured flits: 23887 23891 (2 flits)
Class 0:
Remaining flits: 23887 23891 (2 flits)
Measured flits: 23887 23891 (2 flits)
Time taken is 7000 cycles
====== Traffic class 0 ======

Total number of flits generated = 23896, changed lanes = 22902
Overall minimum packet latency = 7 (1 samples)
Overall average packet latency = 27.1178 (1 samples)
Overall maximum packet latency = 295 (1 samples)
Overall minimum network latency = 8 (1 samples)
Overall average network latency = 27.9047 (1 samples)
Overall maximum network latency = 296 (1 samples)
Overall minimum flit latency = 8 (1 samples)
Overall average flit latency = 27.9413 (1 samples)
Overall maximum flit latency = 296 (1 samples)
Overall minimum fragmentation = 0 (1 samples)
Overall average fragmentation = 0 (1 samples)
Overall maximum fragmentation = 0 (1 samples)
Overall minimum injected packet rate = 0.236667 (1 samples)
Overall average injected packet rate = 0.250271 (1 samples)
Overall maximum injected packet rate = 0.259667 (1 samples)
Overall minimum accepted packet rate = 0.227333 (1 samples)
Overall average accepted packet rate = 0.250167 (1 samples)
Overall maximum accepted packet rate = 0.265667 (1 samples)
Overall minimum injected flit rate = 0.236667 (1 samples)
Overall average injected flit rate = 0.250271 (1 samples)
Overall maximum injected flit rate = 0.259667 (1 samples)
Overall minimum accepted flit rate = 0.227333 (1 samples)
Overall average accepted flit rate = 0.250167 (1 samples)
Overall maximum accepted flit rate = 0.265667 (1 samples)
Overall average injected packet size = 1 (1 samples)
Overall average accepted packet size = 1 (1 samples)
Overall average hops = 2.98526 (1 samples)
Overall throughput of the network (flits/cycle) = 7.96467
Overall throughput of the network (packets/cycle) = 7.96467
Total run time 56.6076
