make: Nothing to be done for 'all'.
Master: Running timer....
Master: Running SRC....
BEGIN Configuration File: ./examples/bitrev
// Topology

topology = torus;
k = 4;
n = 2;

// Routing
routing_function = dim_order;

// Flow control
num_vcs     = 4;
vc_buf_size = 4;
wait_for_tail_credit = 0;

// Router architecture
vc_allocator = islip;
sw_allocator = islip;
alloc_iters  = 1;

credit_delay   = 1;
routing_delay  = 1;
vc_alloc_delay = 1;
sw_alloc_delay = 1;

input_speedup     = 1;
output_speedup    = 1;
internal_speedup  = 1.0;

vc_busy_when_full = 0;

// Traffic
traffic = uniform;
packet_size = 1;

// Simulation
sim_type = throughput;

injection_rate = 0.05;

END Configuration File: ./examples/bitrev
===== Time: 1000 =====
Class 0:
Minimum packet latency = 7
Average packet latency = 24.9791
Maximum packet latency = 230
Minimum network latency = 8
Average network latency = 25.9791
Maximum network latency = 231
Slowest packet = 359
Minimum flit latency = 8
Average flit latency = 25.9791
Maximum flit latency = 231
Slowest flit = 359
Minimum fragmentation = 0
Average fragmentation = 0
Maximum fragmentation = 0
Minimum injected packet rate = 0.041 (at node 5)
Average injected packet rate = 0.048875
Maximum injected packet rate = 0.054 (at node 1)
Minimum accepted packet rate = 0.037 (at node 11)
Average accepted packet rate = 0.0478125
Maximum accepted packet rate = 0.06 (at node 15)
Minimum injected flit rate = 0.041 (at node 5)
Average injected flit rate = 0.048875
Maximum injected flit rate = 0.054 (at node 1)
Minimum accepted flit rate = 0.037 (at node 11)
Average accepted flit rate = 0.0478125
Maximum accepted flit rate = 0.06 (at node 15)
Total number of injected packets = 782
Total number of injected flits = 782
Average injected packet length = 1
Total number of accepted packets = 765
Total number of accepted flits = 765
Average accepted packet length = 1
Total in-flight flits = 17 (0 measured)
===== Time: 2000 =====
Class 0:
Minimum packet latency = 7
Average packet latency = 25.613
Maximum packet latency = 230
Minimum network latency = 8
Average network latency = 26.613
Maximum network latency = 231
Slowest packet = 359
Minimum flit latency = 8
Average flit latency = 26.613
Maximum flit latency = 231
Slowest flit = 359
Minimum fragmentation = 0
Average fragmentation = 0
Maximum fragmentation = 0
Minimum injected packet rate = 0.0395 (at node 8)
Average injected packet rate = 0.049125
Maximum injected packet rate = 0.057 (at node 12)
Minimum accepted packet rate = 0.04 (at node 11)
Average accepted packet rate = 0.0485312
Maximum accepted packet rate = 0.057 (at node 4)
Minimum injected flit rate = 0.0395 (at node 8)
Average injected flit rate = 0.049125
Maximum injected flit rate = 0.057 (at node 12)
Minimum accepted flit rate = 0.04 (at node 11)
Average accepted flit rate = 0.0485312
Maximum accepted flit rate = 0.057 (at node 4)
Total number of injected packets = 1572
Total number of injected flits = 1572
Average injected packet length = 1
Total number of accepted packets = 1553
Total number of accepted flits = 1553
Average accepted packet length = 1
Total in-flight flits = 19 (0 measured)
===== Time: 3000 =====
Class 0:
Minimum packet latency = 7
Average packet latency = 25.9282
Maximum packet latency = 165
Minimum network latency = 8
Average network latency = 26.9282
Maximum network latency = 166
Slowest packet = 1982
Minimum flit latency = 8
Average flit latency = 26.9282
Maximum flit latency = 166
Slowest flit = 1982
Minimum fragmentation = 0
Average fragmentation = 0
Maximum fragmentation = 0
Minimum injected packet rate = 0.045 (at node 4)
Average injected packet rate = 0.0518125
Maximum injected packet rate = 0.059 (at node 1)
Minimum accepted packet rate = 0.036 (at node 4)
Average accepted packet rate = 0.051375
Maximum accepted packet rate = 0.066 (at node 15)
Minimum injected flit rate = 0.045 (at node 4)
Average injected flit rate = 0.0518125
Maximum injected flit rate = 0.059 (at node 1)
Minimum accepted flit rate = 0.036 (at node 4)
Average accepted flit rate = 0.051375
Maximum accepted flit rate = 0.066 (at node 15)
Total number of injected packets = 829
Total number of injected flits = 829
Average injected packet length = 1
Total number of accepted packets = 822
Total number of accepted flits = 822
Average accepted packet length = 1
Total in-flight flits = 26 (0 measured)
===== Time: 4000 =====
Class 0:
Minimum packet latency = 7
Average packet latency = 26.1799
Maximum packet latency = 298
Minimum network latency = 8
Average network latency = 27.1799
Maximum network latency = 299
Slowest packet = 2860
Minimum flit latency = 8
Average flit latency = 27.5538
Maximum flit latency = 299
Slowest flit = 2860
Minimum fragmentation = 0
Average fragmentation = 0
Maximum fragmentation = 0
Minimum injected packet rate = 0.035 (at node 0)
Average injected packet rate = 0.0480625
Maximum injected packet rate = 0.057 (at node 9)
Minimum accepted packet rate = 0.031 (at node 4)
Average accepted packet rate = 0.0481875
Maximum accepted packet rate = 0.062 (at node 3)
Minimum injected flit rate = 0.035 (at node 0)
Average injected flit rate = 0.0480625
Maximum injected flit rate = 0.057 (at node 9)
Minimum accepted flit rate = 0.031 (at node 4)
Average accepted flit rate = 0.0481875
Maximum accepted flit rate = 0.062 (at node 3)
Total number of injected packets = 769
Total number of injected flits = 769
Average injected packet length = 1
Total number of accepted packets = 771
Total number of accepted flits = 771
Average accepted packet length = 1
Total in-flight flits = 24 (24 measured)
===== Time: 5000 =====
Class 0:
Minimum packet latency = 7
Average packet latency = 25.3951
Maximum packet latency = 298
Minimum network latency = 8
Average network latency = 26.3951
Maximum network latency = 299
Slowest packet = 2860
Minimum flit latency = 8
Average flit latency = 26.596
Maximum flit latency = 299
Slowest flit = 2860
Minimum fragmentation = 0
Average fragmentation = 0
Maximum fragmentation = 0
Minimum injected packet rate = 0.0365 (at node 0)
Average injected packet rate = 0.0476875
Maximum injected packet rate = 0.0575 (at node 9)
Minimum accepted packet rate = 0.038 (at node 4)
Average accepted packet rate = 0.0480312
Maximum accepted packet rate = 0.0565 (at node 3)
Minimum injected flit rate = 0.0365 (at node 0)
Average injected flit rate = 0.0476875
Maximum injected flit rate = 0.0575 (at node 9)
Minimum accepted flit rate = 0.038 (at node 4)
Average accepted flit rate = 0.0480312
Maximum accepted flit rate = 0.0565 (at node 3)
Total number of injected packets = 1526
Total number of injected flits = 1526
Average injected packet length = 1
Total number of accepted packets = 1537
Total number of accepted flits = 1537
Average accepted packet length = 1
Total in-flight flits = 15 (15 measured)
===== Time: 6000 =====
Class 0:
Minimum packet latency = 7
Average packet latency = 25.4446
Maximum packet latency = 298
Minimum network latency = 8
Average network latency = 26.4446
Maximum network latency = 299
Slowest packet = 2860
Minimum flit latency = 8
Average flit latency = 26.5772
Maximum flit latency = 299
Slowest flit = 2860
Minimum fragmentation = 0
Average fragmentation = 0
Maximum fragmentation = 0
Minimum injected packet rate = 0.041 (at node 0)
Average injected packet rate = 0.0481667
Maximum injected packet rate = 0.057 (at node 15)
Minimum accepted packet rate = 0.04 (at node 4)
Average accepted packet rate = 0.0483333
Maximum accepted packet rate = 0.0536667 (at node 3)
Minimum injected flit rate = 0.041 (at node 0)
Average injected flit rate = 0.0481667
Maximum injected flit rate = 0.057 (at node 15)
Minimum accepted flit rate = 0.04 (at node 4)
Average accepted flit rate = 0.0483333
Maximum accepted flit rate = 0.0536667 (at node 3)
Total number of injected packets = 2312
Total number of injected flits = 2312
Average injected packet length = 1
Total number of accepted packets = 2320
Total number of accepted flits = 2320
Average accepted packet length = 1
Total in-flight flits = 18 (18 measured)
===== Time: 7000 =====
Class 0:
Minimum packet latency = 7
Average packet latency = 25.0997
Maximum packet latency = 298
Minimum network latency = 8
Average network latency = 26.0997
Maximum network latency = 299
Slowest packet = 2860
Minimum flit latency = 8
Average flit latency = 26.2006
Maximum flit latency = 299
Slowest flit = 2860
Minimum fragmentation = 0
Average fragmentation = 0
Maximum fragmentation = 0
Minimum injected packet rate = 0.04275 (at node 0)
Average injected packet rate = 0.0488906
Maximum injected packet rate = 0.054 (at node 15)
Minimum accepted packet rate = 0.0395 (at node 4)
Average accepted packet rate = 0.049
Maximum accepted packet rate = 0.05375 (at node 7)
Minimum injected flit rate = 0.04275 (at node 0)
Average injected flit rate = 0.0488906
Maximum injected flit rate = 0.054 (at node 15)
Minimum accepted flit rate = 0.0395 (at node 4)
Average accepted flit rate = 0.049
Maximum accepted flit rate = 0.05375 (at node 7)
Total number of injected packets = 3129
Total number of injected flits = 3129
Average injected packet length = 1
Total number of accepted packets = 3136
Total number of accepted flits = 3136
Average accepted packet length = 1
Total in-flight flits = 19 (19 measured)
Draining remaining packets ...
Class 0:
Remaining flits: 5515 5519 5522 5523 5524 5525 5526 5527 5528 5529 (10 flits)
Measured flits: 5515 5519 5522 5523 5524 5525 5526 5527 5528 5529 (10 flits)
Class 0:
Remaining flits: 5522 5523 5526 5528 5529 (5 flits)
Measured flits: 5522 5523 5526 5528 5529 (5 flits)
Class 0:
Remaining flits: 5526 5528 (2 flits)
Measured flits: 5526 5528 (2 flits)
Class 0:
Remaining flits: 5528 (1 flits)
Measured flits: 5528 (1 flits)
Class 0:
Remaining flits: 5528 (1 flits)
Measured flits: 5528 (1 flits)
Class 0:
Remaining flits: 5528 (1 flits)
Measured flits: 5528 (1 flits)
Class 0:
Remaining flits: 5528 (1 flits)
Measured flits: 5528 (1 flits)
Class 0:
Remaining flits: 5528 (1 flits)
Measured flits: 5528 (1 flits)
Class 0:
Remaining flits: 5528 (1 flits)
Measured flits: 5528 (1 flits)
Class 0:
Remaining flits: 5528 (1 flits)
Measured flits: 5528 (1 flits)
Class 0:
Remaining flits: 5528 (1 flits)
Measured flits: 5528 (1 flits)
Class 0:
Remaining flits: 5528 (1 flits)
Measured flits: 5528 (1 flits)
Class 0:
Remaining flits: 5528 (1 flits)
Measured flits: 5528 (1 flits)
Class 0:
Remaining flits: 5528 (1 flits)
Measured flits: 5528 (1 flits)
Class 0:
Remaining flits: 5528 (1 flits)
Measured flits: 5528 (1 flits)
Class 0:
Remaining flits: 5528 (1 flits)
Measured flits: 5528 (1 flits)
Class 0:
Remaining flits: 5528 (1 flits)
Measured flits: 5528 (1 flits)
Class 0:
Remaining flits: 5528 (1 flits)
Measured flits: 5528 (1 flits)
Class 0:
Remaining flits: 5528 (1 flits)
Measured flits: 5528 (1 flits)
Class 0:
Remaining flits: 5528 (1 flits)
Measured flits: 5528 (1 flits)
Class 0:
Remaining flits: 5528 (1 flits)
Measured flits: 5528 (1 flits)
Class 0:
Remaining flits: 5528 (1 flits)
Measured flits: 5528 (1 flits)
Class 0:
Remaining flits: 5528 (1 flits)
Measured flits: 5528 (1 flits)
Class 0:
Remaining flits: 5528 (1 flits)
Measured flits: 5528 (1 flits)
Class 0:
Remaining flits: 5528 (1 flits)
Measured flits: 5528 (1 flits)
Class 0:
Remaining flits: 5528 (1 flits)
Measured flits: 5528 (1 flits)
Class 0:
Remaining flits: 5528 (1 flits)
Measured flits: 5528 (1 flits)
Class 0:
Remaining flits: 5528 (1 flits)
Measured flits: 5528 (1 flits)
Class 0:
Remaining flits: 5528 (1 flits)
Measured flits: 5528 (1 flits)
Class 0:
Remaining flits: 5528 (1 flits)
Measured flits: 5528 (1 flits)
Class 0:
Remaining flits: 5528 (1 flits)
Measured flits: 5528 (1 flits)
Class 0:
Remaining flits: 5528 (1 flits)
Measured flits: 5528 (1 flits)
Class 0:
Remaining flits: 5528 (1 flits)
Measured flits: 5528 (1 flits)
Class 0:
Remaining flits: 5528 (1 flits)
Measured flits: 5528 (1 flits)
Class 0:
Remaining flits: 5528 (1 flits)
Measured flits: 5528 (1 flits)
Class 0:
Remaining flits: 5528 (1 flits)
Measured flits: 5528 (1 flits)
Class 0:
Remaining flits: 5528 (1 flits)
Measured flits: 5528 (1 flits)
Class 0:
Remaining flits: 5528 (1 flits)
Measured flits: 5528 (1 flits)
Class 0:
Remaining flits: 5528 (1 flits)
Measured flits: 5528 (1 flits)
Class 0:
Remaining flits: 5528 (1 flits)
Measured flits: 5528 (1 flits)
Class 0:
Remaining flits: 5528 (1 flits)
Measured flits: 5528 (1 flits)
Class 0:
Remaining flits: 5528 (1 flits)
Measured flits: 5528 (1 flits)
Class 0:
Remaining flits: 5528 (1 flits)
Measured flits: 5528 (1 flits)
Class 0:
Remaining flits: 5528 (1 flits)
Measured flits: 5528 (1 flits)
Class 0:
Remaining flits: 5528 (1 flits)
Measured flits: 5528 (1 flits)
Class 0:
Remaining flits: 5528 (1 flits)
Measured flits: 5528 (1 flits)
Class 0:
Remaining flits: 5528 (1 flits)
Measured flits: 5528 (1 flits)
Class 0:
Remaining flits: 5528 (1 flits)
Measured flits: 5528 (1 flits)
Class 0:
Remaining flits: 5528 (1 flits)
Measured flits: 5528 (1 flits)
Class 0:
Remaining flits: 5528 (1 flits)
Measured flits: 5528 (1 flits)
Class 0:
Remaining flits: 5528 (1 flits)
Measured flits: 5528 (1 flits)
Class 0:
Remaining flits: 5528 (1 flits)
Measured flits: 5528 (1 flits)
Class 0:
Remaining flits: 5528 (1 flits)
Measured flits: 5528 (1 flits)
Class 0:
Remaining flits: 5528 (1 flits)
Measured flits: 5528 (1 flits)
Class 0:
Remaining flits: 5528 (1 flits)
Measured flits: 5528 (1 flits)
Class 0:
Remaining flits: 5528 (1 flits)
Measured flits: 5528 (1 flits)
Class 0:
Remaining flits: 5528 (1 flits)
Measured flits: 5528 (1 flits)
Class 0:
Remaining flits: 5528 (1 flits)
Measured flits: 5528 (1 flits)
Class 0:
Remaining flits: 5528 (1 flits)
Measured flits: 5528 (1 flits)
Class 0:
Remaining flits: 5528 (1 flits)
Measured flits: 5528 (1 flits)
Class 0:
Remaining flits: 5528 (1 flits)
Measured flits: 5528 (1 flits)
Class 0:
Remaining flits: 5528 (1 flits)
Measured flits: 5528 (1 flits)
Class 0:
Remaining flits: 5528 (1 flits)
Measured flits: 5528 (1 flits)
Class 0:
Remaining flits: 5528 (1 flits)
Measured flits: 5528 (1 flits)
Class 0:
Remaining flits: 5528 (1 flits)
Measured flits: 5528 (1 flits)
Class 0:
Remaining flits: 5528 (1 flits)
Measured flits: 5528 (1 flits)
Class 0:
Remaining flits: 5528 (1 flits)
Measured flits: 5528 (1 flits)
Class 0:
Remaining flits: 5528 (1 flits)
Measured flits: 5528 (1 flits)
Class 0:
Remaining flits: 5528 (1 flits)
Measured flits: 5528 (1 flits)
Class 0:
Remaining flits: 5528 (1 flits)
Measured flits: 5528 (1 flits)
Class 0:
Remaining flits: 5528 (1 flits)
Measured flits: 5528 (1 flits)
Class 0:
Remaining flits: 5528 (1 flits)
Measured flits: 5528 (1 flits)
Class 0:
Remaining flits: 5528 (1 flits)
Measured flits: 5528 (1 flits)
Class 0:
Remaining flits: 5528 (1 flits)
Measured flits: 5528 (1 flits)
Class 0:
Remaining flits: 5528 (1 flits)
Measured flits: 5528 (1 flits)
Class 0:
Remaining flits: 5528 (1 flits)
Measured flits: 5528 (1 flits)
Class 0:
Remaining flits: 5528 (1 flits)
Measured flits: 5528 (1 flits)
Class 0:
Remaining flits: 5528 (1 flits)
Measured flits: 5528 (1 flits)
Class 0:
Remaining flits: 5528 (1 flits)
Measured flits: 5528 (1 flits)
Class 0:
Remaining flits: 5528 (1 flits)
Measured flits: 5528 (1 flits)
Class 0:
Remaining flits: 5528 (1 flits)
Measured flits: 5528 (1 flits)
Class 0:
Remaining flits: 5528 (1 flits)
Measured flits: 5528 (1 flits)
Class 0:
Remaining flits: 5528 (1 flits)
Measured flits: 5528 (1 flits)
Class 0:
Remaining flits: 5528 (1 flits)
Measured flits: 5528 (1 flits)
Class 0:
Remaining flits: 5528 (1 flits)
Measured flits: 5528 (1 flits)
Class 0:
Remaining flits: 5528 (1 flits)
Measured flits: 5528 (1 flits)
Class 0:
Remaining flits: 5528 (1 flits)
Measured flits: 5528 (1 flits)
Class 0:
Remaining flits: 5528 (1 flits)
Measured flits: 5528 (1 flits)
Class 0:
Remaining flits: 5528 (1 flits)
Measured flits: 5528 (1 flits)
Class 0:
Remaining flits: 5528 (1 flits)
Measured flits: 5528 (1 flits)
Class 0:
Remaining flits: 5528 (1 flits)
Measured flits: 5528 (1 flits)
Class 0:
Remaining flits: 5528 (1 flits)
Measured flits: 5528 (1 flits)
Class 0:
Remaining flits: 5528 (1 flits)
Measured flits: 5528 (1 flits)
Class 0:
Remaining flits: 5528 (1 flits)
Measured flits: 5528 (1 flits)
Class 0:
Remaining flits: 5528 (1 flits)
Measured flits: 5528 (1 flits)
Class 0:
Remaining flits: 5528 (1 flits)
Measured flits: 5528 (1 flits)
Class 0:
Remaining flits: 5528 (1 flits)
Measured flits: 5528 (1 flits)
Class 0:
Remaining flits: 5528 (1 flits)
Measured flits: 5528 (1 flits)
Class 0:
Remaining flits: 5528 (1 flits)
Measured flits: 5528 (1 flits)
Class 0:
Remaining flits: 5528 (1 flits)
Measured flits: 5528 (1 flits)
Class 0:
Remaining flits: 5528 (1 flits)
Measured flits: 5528 (1 flits)
Time taken is 8000 cycles
====== Traffic class 0 ======

Total number of flits generated = 5530, changed lanes = 5255
Overall minimum packet latency = 7 (1 samples)
Overall average packet latency = 25.1081 (1 samples)
Overall maximum packet latency = 298 (1 samples)
Overall minimum network latency = 8 (1 samples)
Overall average network latency = 26.1081 (1 samples)
Overall maximum network latency = 299 (1 samples)
Overall minimum flit latency = 8 (1 samples)
Overall average flit latency = 26.2083 (1 samples)
Overall maximum flit latency = 299 (1 samples)
Overall minimum fragmentation = 0 (1 samples)
Overall average fragmentation = 0 (1 samples)
Overall maximum fragmentation = 0 (1 samples)
Overall minimum injected packet rate = 0.04275 (1 samples)
Overall average injected packet rate = 0.0488906 (1 samples)
Overall maximum injected packet rate = 0.054 (1 samples)
Overall minimum accepted packet rate = 0.0395 (1 samples)
Overall average accepted packet rate = 0.049 (1 samples)
Overall maximum accepted packet rate = 0.05375 (1 samples)
Overall minimum injected flit rate = 0.04275 (1 samples)
Overall average injected flit rate = 0.0488906 (1 samples)
Overall maximum injected flit rate = 0.054 (1 samples)
Overall minimum accepted flit rate = 0.0395 (1 samples)
Overall average accepted flit rate = 0.049 (1 samples)
Overall maximum accepted flit rate = 0.05375 (1 samples)
Overall average injected packet size = 1 (1 samples)
Overall average accepted packet size = 1 (1 samples)
Overall average hops = 2.98753 (1 samples)
Overall throughput of the network (flits/cycle) = 1.38225
Overall throughput of the network (packets/cycle) = 1.38225
Total run time 7.45697
