make: Nothing to be done for 'all'.
Master: Running timer....
Master: Running SRC....
BEGIN Configuration File: ./examples/bitrev
// Topology

topology = torus;
k = 4;
n = 2;

// Routing
routing_function = dim_order;

// Flow control
num_vcs     = 4;
vc_buf_size = 4;
wait_for_tail_credit = 0;

// Router architecture
vc_allocator = islip;
sw_allocator = islip;
alloc_iters  = 1;

credit_delay   = 1;
routing_delay  = 1;
vc_alloc_delay = 1;
sw_alloc_delay = 1;

input_speedup     = 1;
output_speedup    = 1;
internal_speedup  = 1.0;

vc_busy_when_full = 0;

// Traffic
traffic = uniform;
packet_size = 1;

// Simulation
sim_type = throughput;

injection_rate = 0.39;

END Configuration File: ./examples/bitrev
===== Time: 1000 =====
Class 0:
Minimum packet latency = 7
Average packet latency = 46.2266
Maximum packet latency = 149
Minimum network latency = 8
Average network latency = 44.4053
Maximum network latency = 114
Slowest packet = 2878
Minimum flit latency = 8
Average flit latency = 44.4053
Maximum flit latency = 114
Slowest flit = 2878
Minimum fragmentation = 0
Average fragmentation = 0
Maximum fragmentation = 0
Minimum injected packet rate = 0.348 (at node 12)
Average injected packet rate = 0.383625
Maximum injected packet rate = 0.413 (at node 15)
Minimum accepted packet rate = 0.335 (at node 14)
Average accepted packet rate = 0.363812
Maximum accepted packet rate = 0.388 (at node 1)
Minimum injected flit rate = 0.348 (at node 12)
Average injected flit rate = 0.383625
Maximum injected flit rate = 0.413 (at node 15)
Minimum accepted flit rate = 0.335 (at node 14)
Average accepted flit rate = 0.363812
Maximum accepted flit rate = 0.388 (at node 1)
Total number of injected packets = 6138
Total number of injected flits = 6138
Average injected packet length = 1
Total number of accepted packets = 5821
Total number of accepted flits = 5821
Average accepted packet length = 1
Total in-flight flits = 322 (0 measured)
===== Time: 2000 =====
Class 0:
Minimum packet latency = 7
Average packet latency = 57.123
Maximum packet latency = 235
Minimum network latency = 8
Average network latency = 47.5034
Maximum network latency = 114
Slowest packet = 2878
Minimum flit latency = 8
Average flit latency = 47.5034
Maximum flit latency = 114
Slowest flit = 2878
Minimum fragmentation = 0
Average fragmentation = 0
Maximum fragmentation = 0
Minimum injected packet rate = 0.358 (at node 12)
Average injected packet rate = 0.381063
Maximum injected packet rate = 0.4055 (at node 15)
Minimum accepted packet rate = 0.339 (at node 4)
Average accepted packet rate = 0.37175
Maximum accepted packet rate = 0.4025 (at node 11)
Minimum injected flit rate = 0.358 (at node 12)
Average injected flit rate = 0.381063
Maximum injected flit rate = 0.4055 (at node 15)
Minimum accepted flit rate = 0.339 (at node 4)
Average accepted flit rate = 0.37175
Maximum accepted flit rate = 0.4025 (at node 11)
Total number of injected packets = 12194
Total number of injected flits = 12194
Average injected packet length = 1
Total number of accepted packets = 11896
Total number of accepted flits = 11896
Average accepted packet length = 1
Total in-flight flits = 303 (0 measured)
===== Time: 3000 =====
Class 0:
Minimum packet latency = 7
Average packet latency = 89.4249
Maximum packet latency = 266
Minimum network latency = 8
Average network latency = 52.9151
Maximum network latency = 155
Slowest packet = 11781
Minimum flit latency = 8
Average flit latency = 52.9151
Maximum flit latency = 155
Slowest flit = 15499
Minimum fragmentation = 0
Average fragmentation = 0
Maximum fragmentation = 0
Minimum injected packet rate = 0.359 (at node 4)
Average injected packet rate = 0.382188
Maximum injected packet rate = 0.415 (at node 13)
Minimum accepted packet rate = 0.336 (at node 4)
Average accepted packet rate = 0.380063
Maximum accepted packet rate = 0.397 (at node 3)
Minimum injected flit rate = 0.359 (at node 4)
Average injected flit rate = 0.382188
Maximum injected flit rate = 0.415 (at node 13)
Minimum accepted flit rate = 0.336 (at node 4)
Average accepted flit rate = 0.380063
Maximum accepted flit rate = 0.397 (at node 3)
Total number of injected packets = 6115
Total number of injected flits = 6115
Average injected packet length = 1
Total number of accepted packets = 6081
Total number of accepted flits = 6081
Average accepted packet length = 1
Total in-flight flits = 336 (0 measured)
===== Time: 4000 =====
Class 0:
Minimum packet latency = 7
Average packet latency = 102.557
Maximum packet latency = 337
Minimum network latency = 8
Average network latency = 54.4694
Maximum network latency = 124
Slowest packet = 18324
Minimum flit latency = 8
Average flit latency = 54.7407
Maximum flit latency = 124
Slowest flit = 22374
Minimum fragmentation = 0
Average fragmentation = 0
Maximum fragmentation = 0
Minimum injected packet rate = 0.361 (at node 3)
Average injected packet rate = 0.382937
Maximum injected packet rate = 0.403 (at node 12)
Minimum accepted packet rate = 0.35 (at node 9)
Average accepted packet rate = 0.385125
Maximum accepted packet rate = 0.42 (at node 13)
Minimum injected flit rate = 0.361 (at node 3)
Average injected flit rate = 0.382937
Maximum injected flit rate = 0.403 (at node 12)
Minimum accepted flit rate = 0.35 (at node 9)
Average accepted flit rate = 0.385125
Maximum accepted flit rate = 0.42 (at node 13)
Total number of injected packets = 6127
Total number of injected flits = 6127
Average injected packet length = 1
Total number of accepted packets = 6162
Total number of accepted flits = 6162
Average accepted packet length = 1
Total in-flight flits = 303 (303 measured)
===== Time: 5000 =====
Class 0:
Minimum packet latency = 7
Average packet latency = 108.422
Maximum packet latency = 472
Minimum network latency = 8
Average network latency = 52.3958
Maximum network latency = 159
Slowest packet = 18324
Minimum flit latency = 8
Average flit latency = 52.5897
Maximum flit latency = 159
Slowest flit = 27495
Minimum fragmentation = 0
Average fragmentation = 0
Maximum fragmentation = 0
Minimum injected packet rate = 0.364 (at node 3)
Average injected packet rate = 0.380781
Maximum injected packet rate = 0.3945 (at node 14)
Minimum accepted packet rate = 0.3555 (at node 9)
Average accepted packet rate = 0.381625
Maximum accepted packet rate = 0.407 (at node 7)
Minimum injected flit rate = 0.364 (at node 3)
Average injected flit rate = 0.380781
Maximum injected flit rate = 0.3945 (at node 14)
Minimum accepted flit rate = 0.3555 (at node 9)
Average accepted flit rate = 0.381625
Maximum accepted flit rate = 0.407 (at node 7)
Total number of injected packets = 12185
Total number of injected flits = 12185
Average injected packet length = 1
Total number of accepted packets = 12212
Total number of accepted flits = 12212
Average accepted packet length = 1
Total in-flight flits = 312 (312 measured)
===== Time: 6000 =====
Class 0:
Minimum packet latency = 7
Average packet latency = 116.316
Maximum packet latency = 523
Minimum network latency = 8
Average network latency = 52.0306
Maximum network latency = 170
Slowest packet = 18324
Minimum flit latency = 8
Average flit latency = 52.1665
Maximum flit latency = 170
Slowest flit = 32333
Minimum fragmentation = 0
Average fragmentation = 0
Maximum fragmentation = 0
Minimum injected packet rate = 0.354333 (at node 4)
Average injected packet rate = 0.381167
Maximum injected packet rate = 0.395667 (at node 14)
Minimum accepted packet rate = 0.366667 (at node 14)
Average accepted packet rate = 0.381792
Maximum accepted packet rate = 0.398 (at node 7)
Minimum injected flit rate = 0.354333 (at node 4)
Average injected flit rate = 0.381167
Maximum injected flit rate = 0.395667 (at node 14)
Minimum accepted flit rate = 0.366667 (at node 14)
Average accepted flit rate = 0.381792
Maximum accepted flit rate = 0.398 (at node 7)
Total number of injected packets = 18296
Total number of injected flits = 18296
Average injected packet length = 1
Total number of accepted packets = 18326
Total number of accepted flits = 18326
Average accepted packet length = 1
Total in-flight flits = 305 (305 measured)
Draining remaining packets ...
Class 0:
Remaining flits: 36124 36166 36167 36184 36185 36196 36198 36201 36210 36218 [...] (245 flits)
Measured flits: 36124 36166 36167 36184 36185 36196 36198 36201 36210 36218 [...] (245 flits)
Class 0:
Remaining flits: 36201 36221 36228 36235 36244 36252 36253 36262 36269 36282 [...] (185 flits)
Measured flits: 36201 36221 36228 36235 36244 36252 36253 36262 36269 36282 [...] (185 flits)
Class 0:
Remaining flits: 36221 36252 36282 36300 36321 36323 36328 36338 36359 36360 [...] (123 flits)
Measured flits: 36221 36252 36282 36300 36321 36323 36328 36338 36359 36360 [...] (123 flits)
Class 0:
Remaining flits: 36282 36359 36368 36369 36374 36397 36398 36399 36415 36419 [...] (78 flits)
Measured flits: 36282 36359 36368 36369 36374 36397 36398 36399 36415 36419 [...] (78 flits)
Class 0:
Remaining flits: 36398 36430 36448 36456 36461 36475 36480 36494 36501 36503 [...] (41 flits)
Measured flits: 36398 36430 36448 36456 36461 36475 36480 36494 36501 36503 [...] (41 flits)
Class 0:
Remaining flits: 36430 36475 36494 36509 36523 36552 36562 36563 36564 36565 [...] (23 flits)
Measured flits: 36430 36475 36494 36509 36523 36552 36562 36563 36564 36565 [...] (23 flits)
Class 0:
Remaining flits: 36430 36563 36565 36576 36584 36592 36593 36597 36598 36600 [...] (13 flits)
Measured flits: 36430 36563 36565 36576 36584 36592 36593 36597 36598 36600 [...] (13 flits)
Class 0:
Remaining flits: 36430 36584 36592 36593 36597 36598 36600 36601 36605 36606 (10 flits)
Measured flits: 36430 36584 36592 36593 36597 36598 36600 36601 36605 36606 (10 flits)
Class 0:
Remaining flits: 36430 36584 36592 36593 36597 36598 36600 36601 36605 36606 (10 flits)
Measured flits: 36430 36584 36592 36593 36597 36598 36600 36601 36605 36606 (10 flits)
Class 0:
Remaining flits: 36430 36584 36592 36593 36597 36598 36600 36601 36605 36606 (10 flits)
Measured flits: 36430 36584 36592 36593 36597 36598 36600 36601 36605 36606 (10 flits)
Class 0:
Remaining flits: 36430 36584 36592 36593 36597 36598 36600 36601 36605 36606 (10 flits)
Measured flits: 36430 36584 36592 36593 36597 36598 36600 36601 36605 36606 (10 flits)
Class 0:
Remaining flits: 36430 36584 36592 36593 36597 36598 36600 36601 36605 36606 (10 flits)
Measured flits: 36430 36584 36592 36593 36597 36598 36600 36601 36605 36606 (10 flits)
Class 0:
Remaining flits: 36430 36584 36592 36593 36597 36598 36600 36601 36605 36606 (10 flits)
Measured flits: 36430 36584 36592 36593 36597 36598 36600 36601 36605 36606 (10 flits)
Class 0:
Remaining flits: 36430 36584 36592 36593 36597 36598 36600 36601 36605 36606 (10 flits)
Measured flits: 36430 36584 36592 36593 36597 36598 36600 36601 36605 36606 (10 flits)
Class 0:
Remaining flits: 36430 36584 36592 36593 36597 36598 36600 36601 36605 36606 (10 flits)
Measured flits: 36430 36584 36592 36593 36597 36598 36600 36601 36605 36606 (10 flits)
Class 0:
Remaining flits: 36430 36584 36592 36593 36597 36598 36600 36601 36605 36606 (10 flits)
Measured flits: 36430 36584 36592 36593 36597 36598 36600 36601 36605 36606 (10 flits)
Class 0:
Remaining flits: 36430 36584 36592 36593 36597 36598 36600 36601 36605 36606 (10 flits)
Measured flits: 36430 36584 36592 36593 36597 36598 36600 36601 36605 36606 (10 flits)
Class 0:
Remaining flits: 36430 36584 36592 36593 36597 36598 36600 36601 36605 36606 (10 flits)
Measured flits: 36430 36584 36592 36593 36597 36598 36600 36601 36605 36606 (10 flits)
Class 0:
Remaining flits: 36430 36584 36592 36593 36597 36598 36600 36601 36605 36606 (10 flits)
Measured flits: 36430 36584 36592 36593 36597 36598 36600 36601 36605 36606 (10 flits)
Class 0:
Remaining flits: 36430 36584 36592 36593 36597 36598 36600 36601 36605 36606 (10 flits)
Measured flits: 36430 36584 36592 36593 36597 36598 36600 36601 36605 36606 (10 flits)
Class 0:
Remaining flits: 36430 36584 36592 36593 36597 36598 36600 36601 36605 36606 (10 flits)
Measured flits: 36430 36584 36592 36593 36597 36598 36600 36601 36605 36606 (10 flits)
Class 0:
Remaining flits: 36430 36584 36592 36593 36597 36598 36600 36601 36605 36606 (10 flits)
Measured flits: 36430 36584 36592 36593 36597 36598 36600 36601 36605 36606 (10 flits)
Class 0:
Remaining flits: 36430 36584 36592 36593 36597 36598 36600 36601 36605 36606 (10 flits)
Measured flits: 36430 36584 36592 36593 36597 36598 36600 36601 36605 36606 (10 flits)
Class 0:
Remaining flits: 36430 36584 36592 36593 36597 36598 36600 36601 36605 36606 (10 flits)
Measured flits: 36430 36584 36592 36593 36597 36598 36600 36601 36605 36606 (10 flits)
Class 0:
Remaining flits: 36430 36584 36592 36593 36597 36598 36600 36601 36605 36606 (10 flits)
Measured flits: 36430 36584 36592 36593 36597 36598 36600 36601 36605 36606 (10 flits)
Class 0:
Remaining flits: 36430 36584 36592 36593 36597 36598 36600 36601 36605 36606 (10 flits)
Measured flits: 36430 36584 36592 36593 36597 36598 36600 36601 36605 36606 (10 flits)
Class 0:
Remaining flits: 36430 36584 36592 36593 36597 36598 36600 36601 36605 36606 (10 flits)
Measured flits: 36430 36584 36592 36593 36597 36598 36600 36601 36605 36606 (10 flits)
Class 0:
Remaining flits: 36430 36584 36592 36593 36597 36598 36600 36601 36605 36606 (10 flits)
Measured flits: 36430 36584 36592 36593 36597 36598 36600 36601 36605 36606 (10 flits)
Class 0:
Remaining flits: 36430 36584 36592 36593 36597 36598 36600 36601 36605 36606 (10 flits)
Measured flits: 36430 36584 36592 36593 36597 36598 36600 36601 36605 36606 (10 flits)
Class 0:
Remaining flits: 36430 36584 36592 36593 36597 36598 36600 36601 36605 36606 (10 flits)
Measured flits: 36430 36584 36592 36593 36597 36598 36600 36601 36605 36606 (10 flits)
Class 0:
Remaining flits: 36430 36584 36592 36593 36597 36598 36600 36601 36605 36606 (10 flits)
Measured flits: 36430 36584 36592 36593 36597 36598 36600 36601 36605 36606 (10 flits)
Class 0:
Remaining flits: 36430 36584 36592 36593 36597 36598 36600 36601 36605 36606 (10 flits)
Measured flits: 36430 36584 36592 36593 36597 36598 36600 36601 36605 36606 (10 flits)
Class 0:
Remaining flits: 36430 36584 36592 36593 36597 36598 36600 36601 36605 36606 (10 flits)
Measured flits: 36430 36584 36592 36593 36597 36598 36600 36601 36605 36606 (10 flits)
Class 0:
Remaining flits: 36430 36584 36592 36593 36597 36598 36600 36601 36605 36606 (10 flits)
Measured flits: 36430 36584 36592 36593 36597 36598 36600 36601 36605 36606 (10 flits)
Class 0:
Remaining flits: 36430 36584 36592 36593 36597 36598 36600 36601 36605 36606 (10 flits)
Measured flits: 36430 36584 36592 36593 36597 36598 36600 36601 36605 36606 (10 flits)
Class 0:
Remaining flits: 36430 36584 36592 36593 36597 36598 36600 36601 36605 36606 (10 flits)
Measured flits: 36430 36584 36592 36593 36597 36598 36600 36601 36605 36606 (10 flits)
Class 0:
Remaining flits: 36430 36584 36592 36593 36597 36598 36600 36601 36605 36606 (10 flits)
Measured flits: 36430 36584 36592 36593 36597 36598 36600 36601 36605 36606 (10 flits)
Class 0:
Remaining flits: 36430 36584 36592 36593 36597 36598 36600 36601 36605 36606 (10 flits)
Measured flits: 36430 36584 36592 36593 36597 36598 36600 36601 36605 36606 (10 flits)
Class 0:
Remaining flits: 36430 36584 36592 36593 36597 36598 36600 36601 36605 36606 (10 flits)
Measured flits: 36430 36584 36592 36593 36597 36598 36600 36601 36605 36606 (10 flits)
Class 0:
Remaining flits: 36430 36584 36592 36593 36597 36598 36600 36601 36605 36606 (10 flits)
Measured flits: 36430 36584 36592 36593 36597 36598 36600 36601 36605 36606 (10 flits)
Class 0:
Remaining flits: 36430 36584 36592 36593 36597 36598 36600 36601 36605 36606 (10 flits)
Measured flits: 36430 36584 36592 36593 36597 36598 36600 36601 36605 36606 (10 flits)
Class 0:
Remaining flits: 36430 36584 36592 36593 36597 36598 36600 36601 36605 36606 (10 flits)
Measured flits: 36430 36584 36592 36593 36597 36598 36600 36601 36605 36606 (10 flits)
Class 0:
Remaining flits: 36430 36584 36592 36593 36597 36598 36600 36601 36605 36606 (10 flits)
Measured flits: 36430 36584 36592 36593 36597 36598 36600 36601 36605 36606 (10 flits)
Class 0:
Remaining flits: 36430 36584 36592 36593 36597 36598 36600 36601 36605 36606 (10 flits)
Measured flits: 36430 36584 36592 36593 36597 36598 36600 36601 36605 36606 (10 flits)
Class 0:
Remaining flits: 36430 36584 36592 36593 36597 36598 36600 36601 36605 36606 (10 flits)
Measured flits: 36430 36584 36592 36593 36597 36598 36600 36601 36605 36606 (10 flits)
Class 0:
Remaining flits: 36430 36584 36592 36593 36597 36598 36600 36601 36605 36606 (10 flits)
Measured flits: 36430 36584 36592 36593 36597 36598 36600 36601 36605 36606 (10 flits)
Class 0:
Remaining flits: 36430 36584 36592 36593 36597 36598 36600 36601 36605 36606 (10 flits)
Measured flits: 36430 36584 36592 36593 36597 36598 36600 36601 36605 36606 (10 flits)
Class 0:
Remaining flits: 36430 36584 36592 36593 36597 36598 36600 36601 36605 36606 (10 flits)
Measured flits: 36430 36584 36592 36593 36597 36598 36600 36601 36605 36606 (10 flits)
Class 0:
Remaining flits: 36430 36584 36592 36593 36597 36598 36600 36601 36605 36606 (10 flits)
Measured flits: 36430 36584 36592 36593 36597 36598 36600 36601 36605 36606 (10 flits)
Class 0:
Remaining flits: 36430 36584 36592 36593 36597 36598 36600 36601 36605 36606 (10 flits)
Measured flits: 36430 36584 36592 36593 36597 36598 36600 36601 36605 36606 (10 flits)
Class 0:
Remaining flits: 36430 36584 36592 36593 36597 36598 36600 36601 36605 36606 (10 flits)
Measured flits: 36430 36584 36592 36593 36597 36598 36600 36601 36605 36606 (10 flits)
Class 0:
Remaining flits: 36430 36584 36592 36593 36597 36598 36600 36601 36605 36606 (10 flits)
Measured flits: 36430 36584 36592 36593 36597 36598 36600 36601 36605 36606 (10 flits)
Class 0:
Remaining flits: 36430 36584 36592 36593 36597 36598 36600 36601 36605 36606 (10 flits)
Measured flits: 36430 36584 36592 36593 36597 36598 36600 36601 36605 36606 (10 flits)
Class 0:
Remaining flits: 36430 36584 36592 36593 36597 36598 36600 36601 36605 36606 (10 flits)
Measured flits: 36430 36584 36592 36593 36597 36598 36600 36601 36605 36606 (10 flits)
Class 0:
Remaining flits: 36430 36584 36592 36593 36597 36598 36600 36601 36605 36606 (10 flits)
Measured flits: 36430 36584 36592 36593 36597 36598 36600 36601 36605 36606 (10 flits)
Class 0:
Remaining flits: 36430 36584 36592 36593 36597 36598 36600 36601 36605 36606 (10 flits)
Measured flits: 36430 36584 36592 36593 36597 36598 36600 36601 36605 36606 (10 flits)
Class 0:
Remaining flits: 36430 36584 36592 36593 36597 36598 36600 36601 36605 36606 (10 flits)
Measured flits: 36430 36584 36592 36593 36597 36598 36600 36601 36605 36606 (10 flits)
Class 0:
Remaining flits: 36430 36584 36592 36593 36597 36598 36600 36601 36605 36606 (10 flits)
Measured flits: 36430 36584 36592 36593 36597 36598 36600 36601 36605 36606 (10 flits)
Class 0:
Remaining flits: 36430 36584 36592 36593 36597 36598 36600 36601 36605 36606 (10 flits)
Measured flits: 36430 36584 36592 36593 36597 36598 36600 36601 36605 36606 (10 flits)
Class 0:
Remaining flits: 36430 36584 36592 36593 36597 36598 36600 36601 36605 36606 (10 flits)
Measured flits: 36430 36584 36592 36593 36597 36598 36600 36601 36605 36606 (10 flits)
Class 0:
Remaining flits: 36430 36584 36592 36593 36597 36598 36600 36601 36605 36606 (10 flits)
Measured flits: 36430 36584 36592 36593 36597 36598 36600 36601 36605 36606 (10 flits)
Class 0:
Remaining flits: 36430 36584 36592 36593 36597 36598 36600 36601 36605 36606 (10 flits)
Measured flits: 36430 36584 36592 36593 36597 36598 36600 36601 36605 36606 (10 flits)
Class 0:
Remaining flits: 36430 36584 36592 36593 36597 36598 36600 36601 36605 36606 (10 flits)
Measured flits: 36430 36584 36592 36593 36597 36598 36600 36601 36605 36606 (10 flits)
Class 0:
Remaining flits: 36430 36584 36592 36593 36597 36598 36600 36601 36605 36606 (10 flits)
Measured flits: 36430 36584 36592 36593 36597 36598 36600 36601 36605 36606 (10 flits)
Class 0:
Remaining flits: 36430 36584 36592 36593 36597 36598 36600 36601 36605 36606 (10 flits)
Measured flits: 36430 36584 36592 36593 36597 36598 36600 36601 36605 36606 (10 flits)
Class 0:
Remaining flits: 36430 36584 36592 36593 36597 36598 36600 36601 36605 36606 (10 flits)
Measured flits: 36430 36584 36592 36593 36597 36598 36600 36601 36605 36606 (10 flits)
Class 0:
Remaining flits: 36430 36584 36592 36593 36597 36598 36600 36601 36605 36606 (10 flits)
Measured flits: 36430 36584 36592 36593 36597 36598 36600 36601 36605 36606 (10 flits)
Class 0:
Remaining flits: 36430 36584 36592 36593 36597 36598 36600 36601 36605 36606 (10 flits)
Measured flits: 36430 36584 36592 36593 36597 36598 36600 36601 36605 36606 (10 flits)
Class 0:
Remaining flits: 36430 36584 36592 36593 36597 36598 36600 36601 36605 36606 (10 flits)
Measured flits: 36430 36584 36592 36593 36597 36598 36600 36601 36605 36606 (10 flits)
Class 0:
Remaining flits: 36430 36584 36592 36593 36597 36598 36600 36601 36605 36606 (10 flits)
Measured flits: 36430 36584 36592 36593 36597 36598 36600 36601 36605 36606 (10 flits)
Class 0:
Remaining flits: 36430 36584 36592 36593 36597 36598 36600 36601 36605 36606 (10 flits)
Measured flits: 36430 36584 36592 36593 36597 36598 36600 36601 36605 36606 (10 flits)
Class 0:
Remaining flits: 36430 36584 36592 36593 36597 36598 36600 36601 36605 36606 (10 flits)
Measured flits: 36430 36584 36592 36593 36597 36598 36600 36601 36605 36606 (10 flits)
Class 0:
Remaining flits: 36430 36584 36592 36593 36597 36598 36600 36601 36605 36606 (10 flits)
Measured flits: 36430 36584 36592 36593 36597 36598 36600 36601 36605 36606 (10 flits)
Class 0:
Remaining flits: 36430 36584 36592 36593 36597 36598 36600 36601 36605 36606 (10 flits)
Measured flits: 36430 36584 36592 36593 36597 36598 36600 36601 36605 36606 (10 flits)
Class 0:
Remaining flits: 36430 36584 36592 36593 36597 36598 36600 36601 36605 36606 (10 flits)
Measured flits: 36430 36584 36592 36593 36597 36598 36600 36601 36605 36606 (10 flits)
Class 0:
Remaining flits: 36430 36584 36592 36593 36597 36598 36600 36601 36605 36606 (10 flits)
Measured flits: 36430 36584 36592 36593 36597 36598 36600 36601 36605 36606 (10 flits)
Class 0:
Remaining flits: 36430 36584 36592 36593 36597 36598 36600 36601 36605 36606 (10 flits)
Measured flits: 36430 36584 36592 36593 36597 36598 36600 36601 36605 36606 (10 flits)
Class 0:
Remaining flits: 36430 36584 36592 36593 36597 36598 36600 36601 36605 36606 (10 flits)
Measured flits: 36430 36584 36592 36593 36597 36598 36600 36601 36605 36606 (10 flits)
Class 0:
Remaining flits: 36430 36584 36592 36593 36597 36598 36600 36601 36605 36606 (10 flits)
Measured flits: 36430 36584 36592 36593 36597 36598 36600 36601 36605 36606 (10 flits)
Class 0:
Remaining flits: 36430 36584 36592 36593 36597 36598 36600 36601 36605 36606 (10 flits)
Measured flits: 36430 36584 36592 36593 36597 36598 36600 36601 36605 36606 (10 flits)
Class 0:
Remaining flits: 36430 36584 36592 36593 36597 36598 36600 36601 36605 36606 (10 flits)
Measured flits: 36430 36584 36592 36593 36597 36598 36600 36601 36605 36606 (10 flits)
Class 0:
Remaining flits: 36430 36584 36592 36593 36597 36598 36600 36601 36605 36606 (10 flits)
Measured flits: 36430 36584 36592 36593 36597 36598 36600 36601 36605 36606 (10 flits)
Class 0:
Remaining flits: 36430 36584 36592 36593 36597 36598 36600 36601 36605 36606 (10 flits)
Measured flits: 36430 36584 36592 36593 36597 36598 36600 36601 36605 36606 (10 flits)
Class 0:
Remaining flits: 36430 36584 36592 36593 36597 36598 36600 36601 36605 36606 (10 flits)
Measured flits: 36430 36584 36592 36593 36597 36598 36600 36601 36605 36606 (10 flits)
Class 0:
Remaining flits: 36430 36584 36592 36593 36597 36598 36600 36601 36605 36606 (10 flits)
Measured flits: 36430 36584 36592 36593 36597 36598 36600 36601 36605 36606 (10 flits)
Class 0:
Remaining flits: 36430 36584 36592 36593 36597 36598 36600 36601 36605 36606 (10 flits)
Measured flits: 36430 36584 36592 36593 36597 36598 36600 36601 36605 36606 (10 flits)
Class 0:
Remaining flits: 36430 36584 36592 36593 36597 36598 36600 36601 36605 36606 (10 flits)
Measured flits: 36430 36584 36592 36593 36597 36598 36600 36601 36605 36606 (10 flits)
Class 0:
Remaining flits: 36430 36584 36592 36593 36597 36598 36600 36601 36605 36606 (10 flits)
Measured flits: 36430 36584 36592 36593 36597 36598 36600 36601 36605 36606 (10 flits)
Class 0:
Remaining flits: 36430 36584 36592 36593 36597 36598 36600 36601 36605 36606 (10 flits)
Measured flits: 36430 36584 36592 36593 36597 36598 36600 36601 36605 36606 (10 flits)
Class 0:
Remaining flits: 36430 36584 36592 36593 36597 36598 36600 36601 36605 36606 (10 flits)
Measured flits: 36430 36584 36592 36593 36597 36598 36600 36601 36605 36606 (10 flits)
Class 0:
Remaining flits: 36430 36584 36592 36593 36597 36598 36600 36601 36605 36606 (10 flits)
Measured flits: 36430 36584 36592 36593 36597 36598 36600 36601 36605 36606 (10 flits)
Class 0:
Remaining flits: 36430 36584 36592 36593 36597 36598 36600 36601 36605 36606 (10 flits)
Measured flits: 36430 36584 36592 36593 36597 36598 36600 36601 36605 36606 (10 flits)
Class 0:
Remaining flits: 36430 36584 36592 36593 36597 36598 36600 36601 36605 36606 (10 flits)
Measured flits: 36430 36584 36592 36593 36597 36598 36600 36601 36605 36606 (10 flits)
Class 0:
Remaining flits: 36430 36584 36592 36593 36597 36598 36600 36601 36605 36606 (10 flits)
Measured flits: 36430 36584 36592 36593 36597 36598 36600 36601 36605 36606 (10 flits)
Class 0:
Remaining flits: 36430 36584 36592 36593 36597 36598 36600 36601 36605 36606 (10 flits)
Measured flits: 36430 36584 36592 36593 36597 36598 36600 36601 36605 36606 (10 flits)
Class 0:
Remaining flits: 36430 36584 36592 36593 36597 36598 36600 36601 36605 36606 (10 flits)
Measured flits: 36430 36584 36592 36593 36597 36598 36600 36601 36605 36606 (10 flits)
Class 0:
Remaining flits: 36430 36584 36592 36593 36597 36598 36600 36601 36605 36606 (10 flits)
Measured flits: 36430 36584 36592 36593 36597 36598 36600 36601 36605 36606 (10 flits)
Class 0:
Remaining flits: 36430 36584 36592 36593 36597 36598 36600 36601 36605 36606 (10 flits)
Measured flits: 36430 36584 36592 36593 36597 36598 36600 36601 36605 36606 (10 flits)
Class 0:
Remaining flits: 36430 36584 36592 36593 36597 36598 36600 36601 36605 36606 (10 flits)
Measured flits: 36430 36584 36592 36593 36597 36598 36600 36601 36605 36606 (10 flits)
Class 0:
Remaining flits: 36430 36584 36592 36593 36597 36598 36600 36601 36605 36606 (10 flits)
Measured flits: 36430 36584 36592 36593 36597 36598 36600 36601 36605 36606 (10 flits)
Class 0:
Remaining flits: 36430 36584 36592 36593 36597 36598 36600 36601 36605 36606 (10 flits)
Measured flits: 36430 36584 36592 36593 36597 36598 36600 36601 36605 36606 (10 flits)
Time taken is 7000 cycles
====== Traffic class 0 ======

Total number of flits generated = 36608, changed lanes = 35546
Overall minimum packet latency = 7 (1 samples)
Overall average packet latency = 117.406 (1 samples)
Overall maximum packet latency = 523 (1 samples)
Overall minimum network latency = 8 (1 samples)
Overall average network latency = 52.0882 (1 samples)
Overall maximum network latency = 170 (1 samples)
Overall minimum flit latency = 8 (1 samples)
Overall average flit latency = 52.2209 (1 samples)
Overall maximum flit latency = 170 (1 samples)
Overall minimum fragmentation = 0 (1 samples)
Overall average fragmentation = 0 (1 samples)
Overall maximum fragmentation = 0 (1 samples)
Overall minimum injected packet rate = 0.354333 (1 samples)
Overall average injected packet rate = 0.381167 (1 samples)
Overall maximum injected packet rate = 0.395667 (1 samples)
Overall minimum accepted packet rate = 0.366667 (1 samples)
Overall average accepted packet rate = 0.381792 (1 samples)
Overall maximum accepted packet rate = 0.398 (1 samples)
Overall minimum injected flit rate = 0.354333 (1 samples)
Overall average injected flit rate = 0.381167 (1 samples)
Overall maximum injected flit rate = 0.395667 (1 samples)
Overall minimum accepted flit rate = 0.366667 (1 samples)
Overall average accepted flit rate = 0.381792 (1 samples)
Overall maximum accepted flit rate = 0.398 (1 samples)
Overall average injected packet size = 1 (1 samples)
Overall average accepted packet size = 1 (1 samples)
Overall average hops = 2.99984 (1 samples)
Overall throughput of the network (flits/cycle) = 12.1993
Overall throughput of the network (packets/cycle) = 12.1993
Total run time 5614.98
