make: Nothing to be done for 'all'.
Master: Running timer....
Master: Running SRC....
BEGIN Configuration File: ./examples/bitrev
// Topology

topology = torus;
k = 4;
n = 2;

// Routing
routing_function = dim_order;

// Flow control
num_vcs     = 4;
vc_buf_size = 4;
wait_for_tail_credit = 0;

// Router architecture
vc_allocator = islip;
sw_allocator = islip;
alloc_iters  = 1;

credit_delay   = 1;
routing_delay  = 1;
vc_alloc_delay = 1;
sw_alloc_delay = 1;

input_speedup     = 1;
output_speedup    = 1;
internal_speedup  = 1.0;

vc_busy_when_full = 0;

// Traffic
traffic = uniform;
packet_size = 1;

// Simulation
sim_type = throughput;

injection_rate = 0.33;

END Configuration File: ./examples/bitrev
===== Time: 1000 =====
Class 0:
Minimum packet latency = 7
Average packet latency = 30.1159
Maximum packet latency = 93
Minimum network latency = 8
Average network latency = 31.1159
Maximum network latency = 94
Slowest packet = 3989
Minimum flit latency = 8
Average flit latency = 31.1159
Maximum flit latency = 94
Slowest flit = 3989
Minimum fragmentation = 0
Average fragmentation = 0
Maximum fragmentation = 0
Minimum injected packet rate = 0.31 (at node 8)
Average injected packet rate = 0.327625
Maximum injected packet rate = 0.345 (at node 0)
Minimum accepted packet rate = 0.294 (at node 4)
Average accepted packet rate = 0.317688
Maximum accepted packet rate = 0.345 (at node 1)
Minimum injected flit rate = 0.31 (at node 8)
Average injected flit rate = 0.327625
Maximum injected flit rate = 0.345 (at node 0)
Minimum accepted flit rate = 0.294 (at node 4)
Average accepted flit rate = 0.317688
Maximum accepted flit rate = 0.345 (at node 1)
Total number of injected packets = 5242
Total number of injected flits = 5242
Average injected packet length = 1
Total number of accepted packets = 5083
Total number of accepted flits = 5083
Average accepted packet length = 1
Total in-flight flits = 159 (0 measured)
===== Time: 2000 =====
Class 0:
Minimum packet latency = 7
Average packet latency = 30.0022
Maximum packet latency = 119
Minimum network latency = 8
Average network latency = 31.0022
Maximum network latency = 120
Slowest packet = 8110
Minimum flit latency = 8
Average flit latency = 31.0022
Maximum flit latency = 120
Slowest flit = 8110
Minimum fragmentation = 0
Average fragmentation = 0
Maximum fragmentation = 0
Minimum injected packet rate = 0.3085 (at node 7)
Average injected packet rate = 0.325813
Maximum injected packet rate = 0.3455 (at node 2)
Minimum accepted packet rate = 0.2935 (at node 4)
Average accepted packet rate = 0.321344
Maximum accepted packet rate = 0.3365 (at node 8)
Minimum injected flit rate = 0.3085 (at node 7)
Average injected flit rate = 0.325813
Maximum injected flit rate = 0.3455 (at node 2)
Minimum accepted flit rate = 0.2935 (at node 4)
Average accepted flit rate = 0.321344
Maximum accepted flit rate = 0.3365 (at node 8)
Total number of injected packets = 10426
Total number of injected flits = 10426
Average injected packet length = 1
Total number of accepted packets = 10283
Total number of accepted flits = 10283
Average accepted packet length = 1
Total in-flight flits = 143 (0 measured)
===== Time: 3000 =====
Class 0:
Minimum packet latency = 7
Average packet latency = 30.9919
Maximum packet latency = 125
Minimum network latency = 8
Average network latency = 31.9233
Maximum network latency = 117
Slowest packet = 14142
Minimum flit latency = 8
Average flit latency = 31.9233
Maximum flit latency = 117
Slowest flit = 14142
Minimum fragmentation = 0
Average fragmentation = 0
Maximum fragmentation = 0
Minimum injected packet rate = 0.302 (at node 11)
Average injected packet rate = 0.332062
Maximum injected packet rate = 0.364 (at node 6)
Minimum accepted packet rate = 0.285 (at node 4)
Average accepted packet rate = 0.329937
Maximum accepted packet rate = 0.368 (at node 5)
Minimum injected flit rate = 0.302 (at node 11)
Average injected flit rate = 0.332062
Maximum injected flit rate = 0.364 (at node 6)
Minimum accepted flit rate = 0.285 (at node 4)
Average accepted flit rate = 0.329937
Maximum accepted flit rate = 0.368 (at node 5)
Total number of injected packets = 5313
Total number of injected flits = 5313
Average injected packet length = 1
Total number of accepted packets = 5279
Total number of accepted flits = 5279
Average accepted packet length = 1
Total in-flight flits = 177 (0 measured)
===== Time: 4000 =====
Class 0:
Minimum packet latency = 7
Average packet latency = 30.7946
Maximum packet latency = 92
Minimum network latency = 8
Average network latency = 31.7946
Maximum network latency = 93
Slowest packet = 18586
Minimum flit latency = 8
Average flit latency = 31.9195
Maximum flit latency = 93
Slowest flit = 18586
Minimum fragmentation = 0
Average fragmentation = 0
Maximum fragmentation = 0
Minimum injected packet rate = 0.289 (at node 14)
Average injected packet rate = 0.330375
Maximum injected packet rate = 0.369 (at node 10)
Minimum accepted packet rate = 0.303 (at node 12)
Average accepted packet rate = 0.330625
Maximum accepted packet rate = 0.376 (at node 10)
Minimum injected flit rate = 0.289 (at node 14)
Average injected flit rate = 0.330375
Maximum injected flit rate = 0.369 (at node 10)
Minimum accepted flit rate = 0.303 (at node 12)
Average accepted flit rate = 0.330625
Maximum accepted flit rate = 0.376 (at node 10)
Total number of injected packets = 5286
Total number of injected flits = 5286
Average injected packet length = 1
Total number of accepted packets = 5290
Total number of accepted flits = 5290
Average accepted packet length = 1
Total in-flight flits = 173 (173 measured)
===== Time: 5000 =====
Class 0:
Minimum packet latency = 7
Average packet latency = 33.637
Maximum packet latency = 162
Minimum network latency = 8
Average network latency = 33.8692
Maximum network latency = 163
Slowest packet = 21044
Minimum flit latency = 8
Average flit latency = 33.8971
Maximum flit latency = 163
Slowest flit = 21044
Minimum fragmentation = 0
Average fragmentation = 0
Maximum fragmentation = 0
Minimum injected packet rate = 0.3055 (at node 14)
Average injected packet rate = 0.328469
Maximum injected packet rate = 0.3475 (at node 10)
Minimum accepted packet rate = 0.3075 (at node 0)
Average accepted packet rate = 0.328406
Maximum accepted packet rate = 0.347 (at node 7)
Minimum injected flit rate = 0.3055 (at node 14)
Average injected flit rate = 0.328469
Maximum injected flit rate = 0.3475 (at node 10)
Minimum accepted flit rate = 0.3075 (at node 0)
Average accepted flit rate = 0.328406
Maximum accepted flit rate = 0.347 (at node 7)
Total number of injected packets = 10511
Total number of injected flits = 10511
Average injected packet length = 1
Total number of accepted packets = 10509
Total number of accepted flits = 10509
Average accepted packet length = 1
Total in-flight flits = 179 (179 measured)
===== Time: 6000 =====
Class 0:
Minimum packet latency = 7
Average packet latency = 32.7815
Maximum packet latency = 162
Minimum network latency = 8
Average network latency = 33.2492
Maximum network latency = 163
Slowest packet = 21044
Minimum flit latency = 8
Average flit latency = 33.2746
Maximum flit latency = 163
Slowest flit = 21044
Minimum fragmentation = 0
Average fragmentation = 0
Maximum fragmentation = 0
Minimum injected packet rate = 0.312 (at node 14)
Average injected packet rate = 0.329146
Maximum injected packet rate = 0.344667 (at node 13)
Minimum accepted packet rate = 0.31 (at node 0)
Average accepted packet rate = 0.329708
Maximum accepted packet rate = 0.348667 (at node 6)
Minimum injected flit rate = 0.312 (at node 14)
Average injected flit rate = 0.329146
Maximum injected flit rate = 0.344667 (at node 13)
Minimum accepted flit rate = 0.31 (at node 0)
Average accepted flit rate = 0.329708
Maximum accepted flit rate = 0.348667 (at node 6)
Total number of injected packets = 15799
Total number of injected flits = 15799
Average injected packet length = 1
Total number of accepted packets = 15826
Total number of accepted flits = 15826
Average accepted packet length = 1
Total in-flight flits = 150 (150 measured)
Draining remaining packets ...
Class 0:
Remaining flits: 31259 31317 31337 31349 31361 31366 31379 31388 31390 31394 [...] (104 flits)
Measured flits: 31259 31317 31337 31349 31361 31366 31379 31388 31390 31394 [...] (104 flits)
Class 0:
Remaining flits: 31337 31397 31403 31408 31420 31427 31434 31438 31441 31448 [...] (49 flits)
Measured flits: 31337 31397 31403 31408 31420 31427 31434 31438 31441 31448 [...] (49 flits)
Class 0:
Remaining flits: 31337 31434 31455 31462 31474 31491 31492 31494 31499 31503 [...] (21 flits)
Measured flits: 31337 31434 31455 31462 31474 31491 31492 31494 31499 31503 [...] (21 flits)
Class 0:
Remaining flits: 31434 31494 31499 31503 31525 31532 (6 flits)
Measured flits: 31434 31494 31499 31503 31525 31532 (6 flits)
Class 0:
Remaining flits: 31494 31499 31503 31525 31532 (5 flits)
Measured flits: 31494 31499 31503 31525 31532 (5 flits)
Class 0:
Remaining flits: 31494 31499 31503 31525 31532 (5 flits)
Measured flits: 31494 31499 31503 31525 31532 (5 flits)
Class 0:
Remaining flits: 31494 31499 31503 31525 31532 (5 flits)
Measured flits: 31494 31499 31503 31525 31532 (5 flits)
Class 0:
Remaining flits: 31494 31499 31503 31525 31532 (5 flits)
Measured flits: 31494 31499 31503 31525 31532 (5 flits)
Class 0:
Remaining flits: 31494 31499 31503 31525 31532 (5 flits)
Measured flits: 31494 31499 31503 31525 31532 (5 flits)
Class 0:
Remaining flits: 31494 31499 31503 31525 31532 (5 flits)
Measured flits: 31494 31499 31503 31525 31532 (5 flits)
Class 0:
Remaining flits: 31494 31499 31503 31525 31532 (5 flits)
Measured flits: 31494 31499 31503 31525 31532 (5 flits)
Class 0:
Remaining flits: 31494 31499 31503 31525 31532 (5 flits)
Measured flits: 31494 31499 31503 31525 31532 (5 flits)
Class 0:
Remaining flits: 31494 31499 31503 31525 31532 (5 flits)
Measured flits: 31494 31499 31503 31525 31532 (5 flits)
Class 0:
Remaining flits: 31494 31499 31503 31525 31532 (5 flits)
Measured flits: 31494 31499 31503 31525 31532 (5 flits)
Class 0:
Remaining flits: 31494 31499 31503 31525 31532 (5 flits)
Measured flits: 31494 31499 31503 31525 31532 (5 flits)
Class 0:
Remaining flits: 31494 31499 31503 31525 31532 (5 flits)
Measured flits: 31494 31499 31503 31525 31532 (5 flits)
Class 0:
Remaining flits: 31494 31499 31503 31525 31532 (5 flits)
Measured flits: 31494 31499 31503 31525 31532 (5 flits)
Class 0:
Remaining flits: 31494 31499 31503 31525 31532 (5 flits)
Measured flits: 31494 31499 31503 31525 31532 (5 flits)
Class 0:
Remaining flits: 31494 31499 31503 31525 31532 (5 flits)
Measured flits: 31494 31499 31503 31525 31532 (5 flits)
Class 0:
Remaining flits: 31494 31499 31503 31525 31532 (5 flits)
Measured flits: 31494 31499 31503 31525 31532 (5 flits)
Class 0:
Remaining flits: 31494 31499 31503 31525 31532 (5 flits)
Measured flits: 31494 31499 31503 31525 31532 (5 flits)
Class 0:
Remaining flits: 31494 31499 31503 31525 31532 (5 flits)
Measured flits: 31494 31499 31503 31525 31532 (5 flits)
Class 0:
Remaining flits: 31494 31499 31503 31525 31532 (5 flits)
Measured flits: 31494 31499 31503 31525 31532 (5 flits)
Class 0:
Remaining flits: 31494 31499 31503 31525 31532 (5 flits)
Measured flits: 31494 31499 31503 31525 31532 (5 flits)
Class 0:
Remaining flits: 31494 31499 31503 31525 31532 (5 flits)
Measured flits: 31494 31499 31503 31525 31532 (5 flits)
Class 0:
Remaining flits: 31494 31499 31503 31525 31532 (5 flits)
Measured flits: 31494 31499 31503 31525 31532 (5 flits)
Class 0:
Remaining flits: 31494 31499 31503 31525 31532 (5 flits)
Measured flits: 31494 31499 31503 31525 31532 (5 flits)
Class 0:
Remaining flits: 31494 31499 31503 31525 31532 (5 flits)
Measured flits: 31494 31499 31503 31525 31532 (5 flits)
Class 0:
Remaining flits: 31494 31499 31503 31525 31532 (5 flits)
Measured flits: 31494 31499 31503 31525 31532 (5 flits)
Class 0:
Remaining flits: 31494 31499 31503 31525 31532 (5 flits)
Measured flits: 31494 31499 31503 31525 31532 (5 flits)
Class 0:
Remaining flits: 31494 31499 31503 31525 31532 (5 flits)
Measured flits: 31494 31499 31503 31525 31532 (5 flits)
Class 0:
Remaining flits: 31494 31499 31503 31525 31532 (5 flits)
Measured flits: 31494 31499 31503 31525 31532 (5 flits)
Class 0:
Remaining flits: 31494 31499 31503 31525 31532 (5 flits)
Measured flits: 31494 31499 31503 31525 31532 (5 flits)
Class 0:
Remaining flits: 31494 31499 31503 31525 31532 (5 flits)
Measured flits: 31494 31499 31503 31525 31532 (5 flits)
Class 0:
Remaining flits: 31494 31499 31503 31525 31532 (5 flits)
Measured flits: 31494 31499 31503 31525 31532 (5 flits)
Class 0:
Remaining flits: 31494 31499 31503 31525 31532 (5 flits)
Measured flits: 31494 31499 31503 31525 31532 (5 flits)
Class 0:
Remaining flits: 31494 31499 31503 31525 31532 (5 flits)
Measured flits: 31494 31499 31503 31525 31532 (5 flits)
Class 0:
Remaining flits: 31494 31499 31503 31525 31532 (5 flits)
Measured flits: 31494 31499 31503 31525 31532 (5 flits)
Class 0:
Remaining flits: 31494 31499 31503 31525 31532 (5 flits)
Measured flits: 31494 31499 31503 31525 31532 (5 flits)
Class 0:
Remaining flits: 31494 31499 31503 31525 31532 (5 flits)
Measured flits: 31494 31499 31503 31525 31532 (5 flits)
Class 0:
Remaining flits: 31494 31499 31503 31525 31532 (5 flits)
Measured flits: 31494 31499 31503 31525 31532 (5 flits)
Class 0:
Remaining flits: 31494 31499 31503 31525 31532 (5 flits)
Measured flits: 31494 31499 31503 31525 31532 (5 flits)
Class 0:
Remaining flits: 31494 31499 31503 31525 31532 (5 flits)
Measured flits: 31494 31499 31503 31525 31532 (5 flits)
Class 0:
Remaining flits: 31494 31499 31503 31525 31532 (5 flits)
Measured flits: 31494 31499 31503 31525 31532 (5 flits)
Class 0:
Remaining flits: 31494 31499 31503 31525 31532 (5 flits)
Measured flits: 31494 31499 31503 31525 31532 (5 flits)
Class 0:
Remaining flits: 31494 31499 31503 31525 31532 (5 flits)
Measured flits: 31494 31499 31503 31525 31532 (5 flits)
Class 0:
Remaining flits: 31494 31499 31503 31525 31532 (5 flits)
Measured flits: 31494 31499 31503 31525 31532 (5 flits)
Class 0:
Remaining flits: 31494 31499 31503 31525 31532 (5 flits)
Measured flits: 31494 31499 31503 31525 31532 (5 flits)
Class 0:
Remaining flits: 31494 31499 31503 31525 31532 (5 flits)
Measured flits: 31494 31499 31503 31525 31532 (5 flits)
Class 0:
Remaining flits: 31494 31499 31503 31525 31532 (5 flits)
Measured flits: 31494 31499 31503 31525 31532 (5 flits)
Class 0:
Remaining flits: 31494 31499 31503 31525 31532 (5 flits)
Measured flits: 31494 31499 31503 31525 31532 (5 flits)
Class 0:
Remaining flits: 31494 31499 31503 31525 31532 (5 flits)
Measured flits: 31494 31499 31503 31525 31532 (5 flits)
Class 0:
Remaining flits: 31494 31499 31503 31525 31532 (5 flits)
Measured flits: 31494 31499 31503 31525 31532 (5 flits)
Class 0:
Remaining flits: 31494 31499 31503 31525 31532 (5 flits)
Measured flits: 31494 31499 31503 31525 31532 (5 flits)
Class 0:
Remaining flits: 31494 31499 31503 31525 31532 (5 flits)
Measured flits: 31494 31499 31503 31525 31532 (5 flits)
Class 0:
Remaining flits: 31494 31499 31503 31525 31532 (5 flits)
Measured flits: 31494 31499 31503 31525 31532 (5 flits)
Class 0:
Remaining flits: 31494 31499 31503 31525 31532 (5 flits)
Measured flits: 31494 31499 31503 31525 31532 (5 flits)
Class 0:
Remaining flits: 31494 31499 31503 31525 31532 (5 flits)
Measured flits: 31494 31499 31503 31525 31532 (5 flits)
Class 0:
Remaining flits: 31494 31499 31503 31525 31532 (5 flits)
Measured flits: 31494 31499 31503 31525 31532 (5 flits)
Class 0:
Remaining flits: 31494 31499 31503 31525 31532 (5 flits)
Measured flits: 31494 31499 31503 31525 31532 (5 flits)
Class 0:
Remaining flits: 31494 31499 31503 31525 31532 (5 flits)
Measured flits: 31494 31499 31503 31525 31532 (5 flits)
Class 0:
Remaining flits: 31494 31499 31503 31525 31532 (5 flits)
Measured flits: 31494 31499 31503 31525 31532 (5 flits)
Class 0:
Remaining flits: 31494 31499 31503 31525 31532 (5 flits)
Measured flits: 31494 31499 31503 31525 31532 (5 flits)
Class 0:
Remaining flits: 31494 31499 31503 31525 31532 (5 flits)
Measured flits: 31494 31499 31503 31525 31532 (5 flits)
Class 0:
Remaining flits: 31494 31499 31503 31525 31532 (5 flits)
Measured flits: 31494 31499 31503 31525 31532 (5 flits)
Class 0:
Remaining flits: 31494 31499 31503 31525 31532 (5 flits)
Measured flits: 31494 31499 31503 31525 31532 (5 flits)
Class 0:
Remaining flits: 31494 31499 31503 31525 31532 (5 flits)
Measured flits: 31494 31499 31503 31525 31532 (5 flits)
Class 0:
Remaining flits: 31494 31499 31503 31525 31532 (5 flits)
Measured flits: 31494 31499 31503 31525 31532 (5 flits)
Class 0:
Remaining flits: 31494 31499 31503 31525 31532 (5 flits)
Measured flits: 31494 31499 31503 31525 31532 (5 flits)
Class 0:
Remaining flits: 31494 31499 31503 31525 31532 (5 flits)
Measured flits: 31494 31499 31503 31525 31532 (5 flits)
Class 0:
Remaining flits: 31494 31499 31503 31525 31532 (5 flits)
Measured flits: 31494 31499 31503 31525 31532 (5 flits)
Class 0:
Remaining flits: 31494 31499 31503 31525 31532 (5 flits)
Measured flits: 31494 31499 31503 31525 31532 (5 flits)
Class 0:
Remaining flits: 31494 31499 31503 31525 31532 (5 flits)
Measured flits: 31494 31499 31503 31525 31532 (5 flits)
Class 0:
Remaining flits: 31494 31499 31503 31525 31532 (5 flits)
Measured flits: 31494 31499 31503 31525 31532 (5 flits)
Class 0:
Remaining flits: 31494 31499 31503 31525 31532 (5 flits)
Measured flits: 31494 31499 31503 31525 31532 (5 flits)
Class 0:
Remaining flits: 31494 31499 31503 31525 31532 (5 flits)
Measured flits: 31494 31499 31503 31525 31532 (5 flits)
Class 0:
Remaining flits: 31494 31499 31503 31525 31532 (5 flits)
Measured flits: 31494 31499 31503 31525 31532 (5 flits)
Class 0:
Remaining flits: 31494 31499 31503 31525 31532 (5 flits)
Measured flits: 31494 31499 31503 31525 31532 (5 flits)
Class 0:
Remaining flits: 31494 31499 31503 31525 31532 (5 flits)
Measured flits: 31494 31499 31503 31525 31532 (5 flits)
Class 0:
Remaining flits: 31494 31499 31503 31525 31532 (5 flits)
Measured flits: 31494 31499 31503 31525 31532 (5 flits)
Class 0:
Remaining flits: 31494 31499 31503 31525 31532 (5 flits)
Measured flits: 31494 31499 31503 31525 31532 (5 flits)
Class 0:
Remaining flits: 31494 31499 31503 31525 31532 (5 flits)
Measured flits: 31494 31499 31503 31525 31532 (5 flits)
Class 0:
Remaining flits: 31494 31499 31503 31525 31532 (5 flits)
Measured flits: 31494 31499 31503 31525 31532 (5 flits)
Class 0:
Remaining flits: 31494 31499 31503 31525 31532 (5 flits)
Measured flits: 31494 31499 31503 31525 31532 (5 flits)
Class 0:
Remaining flits: 31494 31499 31503 31525 31532 (5 flits)
Measured flits: 31494 31499 31503 31525 31532 (5 flits)
Class 0:
Remaining flits: 31494 31499 31503 31525 31532 (5 flits)
Measured flits: 31494 31499 31503 31525 31532 (5 flits)
Class 0:
Remaining flits: 31494 31499 31503 31525 31532 (5 flits)
Measured flits: 31494 31499 31503 31525 31532 (5 flits)
Class 0:
Remaining flits: 31494 31499 31503 31525 31532 (5 flits)
Measured flits: 31494 31499 31503 31525 31532 (5 flits)
Class 0:
Remaining flits: 31494 31499 31503 31525 31532 (5 flits)
Measured flits: 31494 31499 31503 31525 31532 (5 flits)
Class 0:
Remaining flits: 31494 31499 31503 31525 31532 (5 flits)
Measured flits: 31494 31499 31503 31525 31532 (5 flits)
Class 0:
Remaining flits: 31494 31499 31503 31525 31532 (5 flits)
Measured flits: 31494 31499 31503 31525 31532 (5 flits)
Class 0:
Remaining flits: 31494 31499 31503 31525 31532 (5 flits)
Measured flits: 31494 31499 31503 31525 31532 (5 flits)
Class 0:
Remaining flits: 31494 31499 31503 31525 31532 (5 flits)
Measured flits: 31494 31499 31503 31525 31532 (5 flits)
Class 0:
Remaining flits: 31494 31499 31503 31525 31532 (5 flits)
Measured flits: 31494 31499 31503 31525 31532 (5 flits)
Class 0:
Remaining flits: 31494 31499 31503 31525 31532 (5 flits)
Measured flits: 31494 31499 31503 31525 31532 (5 flits)
Class 0:
Remaining flits: 31494 31499 31503 31525 31532 (5 flits)
Measured flits: 31494 31499 31503 31525 31532 (5 flits)
Class 0:
Remaining flits: 31494 31499 31503 31525 31532 (5 flits)
Measured flits: 31494 31499 31503 31525 31532 (5 flits)
Class 0:
Remaining flits: 31494 31499 31503 31525 31532 (5 flits)
Measured flits: 31494 31499 31503 31525 31532 (5 flits)
Class 0:
Remaining flits: 31494 31499 31503 31525 31532 (5 flits)
Measured flits: 31494 31499 31503 31525 31532 (5 flits)
Class 0:
Remaining flits: 31494 31499 31503 31525 31532 (5 flits)
Measured flits: 31494 31499 31503 31525 31532 (5 flits)
Class 0:
Remaining flits: 31494 31499 31503 31525 31532 (5 flits)
Measured flits: 31494 31499 31503 31525 31532 (5 flits)
Time taken is 7000 cycles
====== Traffic class 0 ======

Total number of flits generated = 31538, changed lanes = 30442
Overall minimum packet latency = 7 (1 samples)
Overall average packet latency = 32.7876 (1 samples)
Overall maximum packet latency = 162 (1 samples)
Overall minimum network latency = 8 (1 samples)
Overall average network latency = 33.2601 (1 samples)
Overall maximum network latency = 163 (1 samples)
Overall minimum flit latency = 8 (1 samples)
Overall average flit latency = 33.2852 (1 samples)
Overall maximum flit latency = 163 (1 samples)
Overall minimum fragmentation = 0 (1 samples)
Overall average fragmentation = 0 (1 samples)
Overall maximum fragmentation = 0 (1 samples)
Overall minimum injected packet rate = 0.312 (1 samples)
Overall average injected packet rate = 0.329146 (1 samples)
Overall maximum injected packet rate = 0.344667 (1 samples)
Overall minimum accepted packet rate = 0.31 (1 samples)
Overall average accepted packet rate = 0.329708 (1 samples)
Overall maximum accepted packet rate = 0.348667 (1 samples)
Overall minimum injected flit rate = 0.312 (1 samples)
Overall average injected flit rate = 0.329146 (1 samples)
Overall maximum injected flit rate = 0.344667 (1 samples)
Overall minimum accepted flit rate = 0.31 (1 samples)
Overall average accepted flit rate = 0.329708 (1 samples)
Overall maximum accepted flit rate = 0.348667 (1 samples)
Overall average injected packet size = 1 (1 samples)
Overall average accepted packet size = 1 (1 samples)
Overall average hops = 3.00804 (1 samples)
Overall throughput of the network (flits/cycle) = 10.511
Overall throughput of the network (packets/cycle) = 10.511
Total run time 272.652
