make: Nothing to be done for 'all'.
Master: Running timer....
Master: Running SRC....
BEGIN Configuration File: ./examples/bitrev
// Topology

topology = torus;
k = 4;
n = 2;

// Routing
routing_function = dim_order;

// Flow control
num_vcs     = 4;
vc_buf_size = 4;
wait_for_tail_credit = 0;

// Router architecture
vc_allocator = islip;
sw_allocator = islip;
alloc_iters  = 1;

credit_delay   = 1;
routing_delay  = 1;
vc_alloc_delay = 1;
sw_alloc_delay = 1;

input_speedup     = 1;
output_speedup    = 1;
internal_speedup  = 1.0;

vc_busy_when_full = 0;

// Traffic
traffic = uniform;
packet_size = 1;

// Simulation
sim_type = throughput;

injection_rate = 0.15;

END Configuration File: ./examples/bitrev
===== Time: 1000 =====
Class 0:
Minimum packet latency = 7
Average packet latency = 24.3669
Maximum packet latency = 78
Minimum network latency = 8
Average network latency = 25.3669
Maximum network latency = 79
Slowest packet = 1944
Minimum flit latency = 8
Average flit latency = 25.3669
Maximum flit latency = 79
Slowest flit = 1944
Minimum fragmentation = 0
Average fragmentation = 0
Maximum fragmentation = 0
Minimum injected packet rate = 0.13 (at node 9)
Average injected packet rate = 0.14675
Maximum injected packet rate = 0.162 (at node 2)
Minimum accepted packet rate = 0.134 (at node 2)
Average accepted packet rate = 0.143437
Maximum accepted packet rate = 0.158 (at node 8)
Minimum injected flit rate = 0.13 (at node 9)
Average injected flit rate = 0.14675
Maximum injected flit rate = 0.162 (at node 2)
Minimum accepted flit rate = 0.134 (at node 2)
Average accepted flit rate = 0.143437
Maximum accepted flit rate = 0.158 (at node 8)
Total number of injected packets = 2348
Total number of injected flits = 2348
Average injected packet length = 1
Total number of accepted packets = 2295
Total number of accepted flits = 2295
Average accepted packet length = 1
Total in-flight flits = 53 (0 measured)
===== Time: 2000 =====
Class 0:
Minimum packet latency = 7
Average packet latency = 25.0583
Maximum packet latency = 233
Minimum network latency = 8
Average network latency = 25.9677
Maximum network latency = 234
Slowest packet = 3220
Minimum flit latency = 8
Average flit latency = 25.9677
Maximum flit latency = 234
Slowest flit = 3220
Minimum fragmentation = 0
Average fragmentation = 0
Maximum fragmentation = 0
Minimum injected packet rate = 0.1285 (at node 7)
Average injected packet rate = 0.145875
Maximum injected packet rate = 0.156 (at node 2)
Minimum accepted packet rate = 0.1305 (at node 4)
Average accepted packet rate = 0.144125
Maximum accepted packet rate = 0.1575 (at node 8)
Minimum injected flit rate = 0.1285 (at node 7)
Average injected flit rate = 0.145875
Maximum injected flit rate = 0.156 (at node 2)
Minimum accepted flit rate = 0.1305 (at node 4)
Average accepted flit rate = 0.144125
Maximum accepted flit rate = 0.1575 (at node 8)
Total number of injected packets = 4668
Total number of injected flits = 4668
Average injected packet length = 1
Total number of accepted packets = 4612
Total number of accepted flits = 4612
Average accepted packet length = 1
Total in-flight flits = 56 (0 measured)
===== Time: 3000 =====
Class 0:
Minimum packet latency = 7
Average packet latency = 25.5613
Maximum packet latency = 131
Minimum network latency = 8
Average network latency = 26.5613
Maximum network latency = 132
Slowest packet = 5664
Minimum flit latency = 8
Average flit latency = 26.5613
Maximum flit latency = 132
Slowest flit = 5664
Minimum fragmentation = 0
Average fragmentation = 0
Maximum fragmentation = 0
Minimum injected packet rate = 0.137 (at node 2)
Average injected packet rate = 0.149562
Maximum injected packet rate = 0.162 (at node 6)
Minimum accepted packet rate = 0.126 (at node 2)
Average accepted packet rate = 0.148313
Maximum accepted packet rate = 0.166 (at node 14)
Minimum injected flit rate = 0.137 (at node 2)
Average injected flit rate = 0.149562
Maximum injected flit rate = 0.162 (at node 6)
Minimum accepted flit rate = 0.126 (at node 2)
Average accepted flit rate = 0.148313
Maximum accepted flit rate = 0.166 (at node 14)
Total number of injected packets = 2393
Total number of injected flits = 2393
Average injected packet length = 1
Total number of accepted packets = 2373
Total number of accepted flits = 2373
Average accepted packet length = 1
Total in-flight flits = 76 (0 measured)
===== Time: 4000 =====
Class 0:
Minimum packet latency = 7
Average packet latency = 31.9137
Maximum packet latency = 352
Minimum network latency = 8
Average network latency = 29.5491
Maximum network latency = 353
Slowest packet = 7109
Minimum flit latency = 8
Average flit latency = 29.7094
Maximum flit latency = 353
Slowest flit = 7109
Minimum fragmentation = 0
Average fragmentation = 0
Maximum fragmentation = 0
Minimum injected packet rate = 0.123 (at node 12)
Average injected packet rate = 0.150062
Maximum injected packet rate = 0.175 (at node 15)
Minimum accepted packet rate = 0.133 (at node 13)
Average accepted packet rate = 0.151
Maximum accepted packet rate = 0.17 (at node 2)
Minimum injected flit rate = 0.123 (at node 12)
Average injected flit rate = 0.150062
Maximum injected flit rate = 0.175 (at node 15)
Minimum accepted flit rate = 0.133 (at node 13)
Average accepted flit rate = 0.151
Maximum accepted flit rate = 0.17 (at node 2)
Total number of injected packets = 2401
Total number of injected flits = 2401
Average injected packet length = 1
Total number of accepted packets = 2416
Total number of accepted flits = 2416
Average accepted packet length = 1
Total in-flight flits = 61 (61 measured)
===== Time: 5000 =====
Class 0:
Minimum packet latency = 7
Average packet latency = 28.2458
Maximum packet latency = 352
Minimum network latency = 8
Average network latency = 27.5746
Maximum network latency = 353
Slowest packet = 7109
Minimum flit latency = 8
Average flit latency = 27.6869
Maximum flit latency = 353
Slowest flit = 7109
Minimum fragmentation = 0
Average fragmentation = 0
Maximum fragmentation = 0
Minimum injected packet rate = 0.14 (at node 12)
Average injected packet rate = 0.148781
Maximum injected packet rate = 0.1655 (at node 15)
Minimum accepted packet rate = 0.1255 (at node 13)
Average accepted packet rate = 0.149594
Maximum accepted packet rate = 0.166 (at node 9)
Minimum injected flit rate = 0.14 (at node 12)
Average injected flit rate = 0.148781
Maximum injected flit rate = 0.1655 (at node 15)
Minimum accepted flit rate = 0.1255 (at node 13)
Average accepted flit rate = 0.149594
Maximum accepted flit rate = 0.166 (at node 9)
Total number of injected packets = 4761
Total number of injected flits = 4761
Average injected packet length = 1
Total number of accepted packets = 4787
Total number of accepted flits = 4787
Average accepted packet length = 1
Total in-flight flits = 50 (50 measured)
===== Time: 6000 =====
Class 0:
Minimum packet latency = 7
Average packet latency = 26.9891
Maximum packet latency = 352
Minimum network latency = 8
Average network latency = 26.8841
Maximum network latency = 353
Slowest packet = 7109
Minimum flit latency = 8
Average flit latency = 26.966
Maximum flit latency = 353
Slowest flit = 7109
Minimum fragmentation = 0
Average fragmentation = 0
Maximum fragmentation = 0
Minimum injected packet rate = 0.141333 (at node 12)
Average injected packet rate = 0.149458
Maximum injected packet rate = 0.164 (at node 15)
Minimum accepted packet rate = 0.131333 (at node 13)
Average accepted packet rate = 0.150021
Maximum accepted packet rate = 0.159 (at node 2)
Minimum injected flit rate = 0.141333 (at node 12)
Average injected flit rate = 0.149458
Maximum injected flit rate = 0.164 (at node 15)
Minimum accepted flit rate = 0.131333 (at node 13)
Average accepted flit rate = 0.150021
Maximum accepted flit rate = 0.159 (at node 2)
Total number of injected packets = 7174
Total number of injected flits = 7174
Average injected packet length = 1
Total number of accepted packets = 7201
Total number of accepted flits = 7201
Average accepted packet length = 1
Total in-flight flits = 49 (49 measured)
Draining remaining packets ...
Class 0:
Remaining flits: 14093 14135 14165 14174 14180 14187 14192 14193 14202 14209 [...] (28 flits)
Measured flits: 14093 14135 14165 14174 14180 14187 14192 14193 14202 14209 [...] (28 flits)
Class 0:
Remaining flits: 14093 14135 14165 14174 14193 14209 14214 14216 14218 14221 [...] (18 flits)
Measured flits: 14093 14135 14165 14174 14193 14209 14214 14216 14218 14221 [...] (18 flits)
Class 0:
Remaining flits: 14093 14135 14165 14174 14209 14218 14230 (7 flits)
Measured flits: 14093 14135 14165 14174 14209 14218 14230 (7 flits)
Class 0:
Remaining flits: 14093 14135 14165 14174 14209 14218 (6 flits)
Measured flits: 14093 14135 14165 14174 14209 14218 (6 flits)
Class 0:
Remaining flits: 14093 14135 14165 14174 14209 14218 (6 flits)
Measured flits: 14093 14135 14165 14174 14209 14218 (6 flits)
Class 0:
Remaining flits: 14093 14135 14165 14174 14209 14218 (6 flits)
Measured flits: 14093 14135 14165 14174 14209 14218 (6 flits)
Class 0:
Remaining flits: 14093 14135 14165 14174 14209 14218 (6 flits)
Measured flits: 14093 14135 14165 14174 14209 14218 (6 flits)
Class 0:
Remaining flits: 14093 14135 14165 14174 14209 14218 (6 flits)
Measured flits: 14093 14135 14165 14174 14209 14218 (6 flits)
Class 0:
Remaining flits: 14093 14135 14165 14174 14209 14218 (6 flits)
Measured flits: 14093 14135 14165 14174 14209 14218 (6 flits)
Class 0:
Remaining flits: 14093 14135 14165 14174 14209 14218 (6 flits)
Measured flits: 14093 14135 14165 14174 14209 14218 (6 flits)
Class 0:
Remaining flits: 14093 14135 14165 14174 14209 14218 (6 flits)
Measured flits: 14093 14135 14165 14174 14209 14218 (6 flits)
Class 0:
Remaining flits: 14093 14135 14165 14174 14209 14218 (6 flits)
Measured flits: 14093 14135 14165 14174 14209 14218 (6 flits)
Class 0:
Remaining flits: 14093 14135 14165 14174 14209 14218 (6 flits)
Measured flits: 14093 14135 14165 14174 14209 14218 (6 flits)
Class 0:
Remaining flits: 14093 14135 14165 14174 14209 14218 (6 flits)
Measured flits: 14093 14135 14165 14174 14209 14218 (6 flits)
Class 0:
Remaining flits: 14093 14135 14165 14174 14209 14218 (6 flits)
Measured flits: 14093 14135 14165 14174 14209 14218 (6 flits)
Class 0:
Remaining flits: 14093 14135 14165 14174 14209 14218 (6 flits)
Measured flits: 14093 14135 14165 14174 14209 14218 (6 flits)
Class 0:
Remaining flits: 14093 14135 14165 14174 14209 14218 (6 flits)
Measured flits: 14093 14135 14165 14174 14209 14218 (6 flits)
Class 0:
Remaining flits: 14093 14135 14165 14174 14209 14218 (6 flits)
Measured flits: 14093 14135 14165 14174 14209 14218 (6 flits)
Class 0:
Remaining flits: 14093 14135 14165 14174 14209 14218 (6 flits)
Measured flits: 14093 14135 14165 14174 14209 14218 (6 flits)
Class 0:
Remaining flits: 14093 14135 14165 14174 14209 14218 (6 flits)
Measured flits: 14093 14135 14165 14174 14209 14218 (6 flits)
Class 0:
Remaining flits: 14093 14135 14165 14174 14209 14218 (6 flits)
Measured flits: 14093 14135 14165 14174 14209 14218 (6 flits)
Class 0:
Remaining flits: 14093 14135 14165 14174 14209 14218 (6 flits)
Measured flits: 14093 14135 14165 14174 14209 14218 (6 flits)
Class 0:
Remaining flits: 14093 14135 14165 14174 14209 14218 (6 flits)
Measured flits: 14093 14135 14165 14174 14209 14218 (6 flits)
Class 0:
Remaining flits: 14093 14135 14165 14174 14209 14218 (6 flits)
Measured flits: 14093 14135 14165 14174 14209 14218 (6 flits)
Class 0:
Remaining flits: 14093 14135 14165 14174 14209 14218 (6 flits)
Measured flits: 14093 14135 14165 14174 14209 14218 (6 flits)
Class 0:
Remaining flits: 14093 14135 14165 14174 14209 14218 (6 flits)
Measured flits: 14093 14135 14165 14174 14209 14218 (6 flits)
Class 0:
Remaining flits: 14093 14135 14165 14174 14209 14218 (6 flits)
Measured flits: 14093 14135 14165 14174 14209 14218 (6 flits)
Class 0:
Remaining flits: 14093 14135 14165 14174 14209 14218 (6 flits)
Measured flits: 14093 14135 14165 14174 14209 14218 (6 flits)
Class 0:
Remaining flits: 14093 14135 14165 14174 14209 14218 (6 flits)
Measured flits: 14093 14135 14165 14174 14209 14218 (6 flits)
Class 0:
Remaining flits: 14093 14135 14165 14174 14209 14218 (6 flits)
Measured flits: 14093 14135 14165 14174 14209 14218 (6 flits)
Class 0:
Remaining flits: 14093 14135 14165 14174 14209 14218 (6 flits)
Measured flits: 14093 14135 14165 14174 14209 14218 (6 flits)
Class 0:
Remaining flits: 14093 14135 14165 14174 14209 14218 (6 flits)
Measured flits: 14093 14135 14165 14174 14209 14218 (6 flits)
Class 0:
Remaining flits: 14093 14135 14165 14174 14209 14218 (6 flits)
Measured flits: 14093 14135 14165 14174 14209 14218 (6 flits)
Class 0:
Remaining flits: 14093 14135 14165 14174 14209 14218 (6 flits)
Measured flits: 14093 14135 14165 14174 14209 14218 (6 flits)
Class 0:
Remaining flits: 14093 14135 14165 14174 14209 14218 (6 flits)
Measured flits: 14093 14135 14165 14174 14209 14218 (6 flits)
Class 0:
Remaining flits: 14093 14135 14165 14174 14209 14218 (6 flits)
Measured flits: 14093 14135 14165 14174 14209 14218 (6 flits)
Class 0:
Remaining flits: 14093 14135 14165 14174 14209 14218 (6 flits)
Measured flits: 14093 14135 14165 14174 14209 14218 (6 flits)
Class 0:
Remaining flits: 14093 14135 14165 14174 14209 14218 (6 flits)
Measured flits: 14093 14135 14165 14174 14209 14218 (6 flits)
Class 0:
Remaining flits: 14093 14135 14165 14174 14209 14218 (6 flits)
Measured flits: 14093 14135 14165 14174 14209 14218 (6 flits)
Class 0:
Remaining flits: 14093 14135 14165 14174 14209 14218 (6 flits)
Measured flits: 14093 14135 14165 14174 14209 14218 (6 flits)
Class 0:
Remaining flits: 14093 14135 14165 14174 14209 14218 (6 flits)
Measured flits: 14093 14135 14165 14174 14209 14218 (6 flits)
Class 0:
Remaining flits: 14093 14135 14165 14174 14209 14218 (6 flits)
Measured flits: 14093 14135 14165 14174 14209 14218 (6 flits)
Class 0:
Remaining flits: 14093 14135 14165 14174 14209 14218 (6 flits)
Measured flits: 14093 14135 14165 14174 14209 14218 (6 flits)
Class 0:
Remaining flits: 14093 14135 14165 14174 14209 14218 (6 flits)
Measured flits: 14093 14135 14165 14174 14209 14218 (6 flits)
Class 0:
Remaining flits: 14093 14135 14165 14174 14209 14218 (6 flits)
Measured flits: 14093 14135 14165 14174 14209 14218 (6 flits)
Class 0:
Remaining flits: 14093 14135 14165 14174 14209 14218 (6 flits)
Measured flits: 14093 14135 14165 14174 14209 14218 (6 flits)
Class 0:
Remaining flits: 14093 14135 14165 14174 14209 14218 (6 flits)
Measured flits: 14093 14135 14165 14174 14209 14218 (6 flits)
Class 0:
Remaining flits: 14093 14135 14165 14174 14209 14218 (6 flits)
Measured flits: 14093 14135 14165 14174 14209 14218 (6 flits)
Class 0:
Remaining flits: 14093 14135 14165 14174 14209 14218 (6 flits)
Measured flits: 14093 14135 14165 14174 14209 14218 (6 flits)
Class 0:
Remaining flits: 14093 14135 14165 14174 14209 14218 (6 flits)
Measured flits: 14093 14135 14165 14174 14209 14218 (6 flits)
Class 0:
Remaining flits: 14093 14135 14165 14174 14209 14218 (6 flits)
Measured flits: 14093 14135 14165 14174 14209 14218 (6 flits)
Class 0:
Remaining flits: 14093 14135 14165 14174 14209 14218 (6 flits)
Measured flits: 14093 14135 14165 14174 14209 14218 (6 flits)
Class 0:
Remaining flits: 14093 14135 14165 14174 14209 14218 (6 flits)
Measured flits: 14093 14135 14165 14174 14209 14218 (6 flits)
Class 0:
Remaining flits: 14093 14135 14165 14174 14209 14218 (6 flits)
Measured flits: 14093 14135 14165 14174 14209 14218 (6 flits)
Class 0:
Remaining flits: 14093 14135 14165 14174 14209 14218 (6 flits)
Measured flits: 14093 14135 14165 14174 14209 14218 (6 flits)
Class 0:
Remaining flits: 14093 14135 14165 14174 14209 14218 (6 flits)
Measured flits: 14093 14135 14165 14174 14209 14218 (6 flits)
Class 0:
Remaining flits: 14093 14135 14165 14174 14209 14218 (6 flits)
Measured flits: 14093 14135 14165 14174 14209 14218 (6 flits)
Class 0:
Remaining flits: 14093 14135 14165 14174 14209 14218 (6 flits)
Measured flits: 14093 14135 14165 14174 14209 14218 (6 flits)
Class 0:
Remaining flits: 14093 14135 14165 14174 14209 14218 (6 flits)
Measured flits: 14093 14135 14165 14174 14209 14218 (6 flits)
Class 0:
Remaining flits: 14093 14135 14165 14174 14209 14218 (6 flits)
Measured flits: 14093 14135 14165 14174 14209 14218 (6 flits)
Class 0:
Remaining flits: 14093 14135 14165 14174 14209 14218 (6 flits)
Measured flits: 14093 14135 14165 14174 14209 14218 (6 flits)
Class 0:
Remaining flits: 14093 14135 14165 14174 14209 14218 (6 flits)
Measured flits: 14093 14135 14165 14174 14209 14218 (6 flits)
Class 0:
Remaining flits: 14093 14135 14165 14174 14209 14218 (6 flits)
Measured flits: 14093 14135 14165 14174 14209 14218 (6 flits)
Class 0:
Remaining flits: 14093 14135 14165 14174 14209 14218 (6 flits)
Measured flits: 14093 14135 14165 14174 14209 14218 (6 flits)
Class 0:
Remaining flits: 14093 14135 14165 14174 14209 14218 (6 flits)
Measured flits: 14093 14135 14165 14174 14209 14218 (6 flits)
Class 0:
Remaining flits: 14093 14135 14165 14174 14209 14218 (6 flits)
Measured flits: 14093 14135 14165 14174 14209 14218 (6 flits)
Class 0:
Remaining flits: 14093 14135 14165 14174 14209 14218 (6 flits)
Measured flits: 14093 14135 14165 14174 14209 14218 (6 flits)
Class 0:
Remaining flits: 14093 14135 14165 14174 14209 14218 (6 flits)
Measured flits: 14093 14135 14165 14174 14209 14218 (6 flits)
Class 0:
Remaining flits: 14093 14135 14165 14174 14209 14218 (6 flits)
Measured flits: 14093 14135 14165 14174 14209 14218 (6 flits)
Class 0:
Remaining flits: 14093 14135 14165 14174 14209 14218 (6 flits)
Measured flits: 14093 14135 14165 14174 14209 14218 (6 flits)
Class 0:
Remaining flits: 14093 14135 14165 14174 14209 14218 (6 flits)
Measured flits: 14093 14135 14165 14174 14209 14218 (6 flits)
Class 0:
Remaining flits: 14093 14135 14165 14174 14209 14218 (6 flits)
Measured flits: 14093 14135 14165 14174 14209 14218 (6 flits)
Class 0:
Remaining flits: 14093 14135 14165 14174 14209 14218 (6 flits)
Measured flits: 14093 14135 14165 14174 14209 14218 (6 flits)
Class 0:
Remaining flits: 14093 14135 14165 14174 14209 14218 (6 flits)
Measured flits: 14093 14135 14165 14174 14209 14218 (6 flits)
Class 0:
Remaining flits: 14093 14135 14165 14174 14209 14218 (6 flits)
Measured flits: 14093 14135 14165 14174 14209 14218 (6 flits)
Class 0:
Remaining flits: 14093 14135 14165 14174 14209 14218 (6 flits)
Measured flits: 14093 14135 14165 14174 14209 14218 (6 flits)
Class 0:
Remaining flits: 14093 14135 14165 14174 14209 14218 (6 flits)
Measured flits: 14093 14135 14165 14174 14209 14218 (6 flits)
Class 0:
Remaining flits: 14093 14135 14165 14174 14209 14218 (6 flits)
Measured flits: 14093 14135 14165 14174 14209 14218 (6 flits)
Class 0:
Remaining flits: 14093 14135 14165 14174 14209 14218 (6 flits)
Measured flits: 14093 14135 14165 14174 14209 14218 (6 flits)
Class 0:
Remaining flits: 14093 14135 14165 14174 14209 14218 (6 flits)
Measured flits: 14093 14135 14165 14174 14209 14218 (6 flits)
Class 0:
Remaining flits: 14093 14135 14165 14174 14209 14218 (6 flits)
Measured flits: 14093 14135 14165 14174 14209 14218 (6 flits)
Class 0:
Remaining flits: 14093 14135 14165 14174 14209 14218 (6 flits)
Measured flits: 14093 14135 14165 14174 14209 14218 (6 flits)
Class 0:
Remaining flits: 14093 14135 14165 14174 14209 14218 (6 flits)
Measured flits: 14093 14135 14165 14174 14209 14218 (6 flits)
Class 0:
Remaining flits: 14093 14135 14165 14174 14209 14218 (6 flits)
Measured flits: 14093 14135 14165 14174 14209 14218 (6 flits)
Class 0:
Remaining flits: 14093 14135 14165 14174 14209 14218 (6 flits)
Measured flits: 14093 14135 14165 14174 14209 14218 (6 flits)
Class 0:
Remaining flits: 14093 14135 14165 14174 14209 14218 (6 flits)
Measured flits: 14093 14135 14165 14174 14209 14218 (6 flits)
Class 0:
Remaining flits: 14093 14135 14165 14174 14209 14218 (6 flits)
Measured flits: 14093 14135 14165 14174 14209 14218 (6 flits)
Class 0:
Remaining flits: 14093 14135 14165 14174 14209 14218 (6 flits)
Measured flits: 14093 14135 14165 14174 14209 14218 (6 flits)
Class 0:
Remaining flits: 14093 14135 14165 14174 14209 14218 (6 flits)
Measured flits: 14093 14135 14165 14174 14209 14218 (6 flits)
Class 0:
Remaining flits: 14093 14135 14165 14174 14209 14218 (6 flits)
Measured flits: 14093 14135 14165 14174 14209 14218 (6 flits)
Class 0:
Remaining flits: 14093 14135 14165 14174 14209 14218 (6 flits)
Measured flits: 14093 14135 14165 14174 14209 14218 (6 flits)
Class 0:
Remaining flits: 14093 14135 14165 14174 14209 14218 (6 flits)
Measured flits: 14093 14135 14165 14174 14209 14218 (6 flits)
Class 0:
Remaining flits: 14093 14135 14165 14174 14209 14218 (6 flits)
Measured flits: 14093 14135 14165 14174 14209 14218 (6 flits)
Class 0:
Remaining flits: 14093 14135 14165 14174 14209 14218 (6 flits)
Measured flits: 14093 14135 14165 14174 14209 14218 (6 flits)
Class 0:
Remaining flits: 14093 14135 14165 14174 14209 14218 (6 flits)
Measured flits: 14093 14135 14165 14174 14209 14218 (6 flits)
Class 0:
Remaining flits: 14093 14135 14165 14174 14209 14218 (6 flits)
Measured flits: 14093 14135 14165 14174 14209 14218 (6 flits)
Class 0:
Remaining flits: 14093 14135 14165 14174 14209 14218 (6 flits)
Measured flits: 14093 14135 14165 14174 14209 14218 (6 flits)
Class 0:
Remaining flits: 14093 14135 14165 14174 14209 14218 (6 flits)
Measured flits: 14093 14135 14165 14174 14209 14218 (6 flits)
Class 0:
Remaining flits: 14093 14135 14165 14174 14209 14218 (6 flits)
Measured flits: 14093 14135 14165 14174 14209 14218 (6 flits)
Class 0:
Remaining flits: 14093 14135 14165 14174 14209 14218 (6 flits)
Measured flits: 14093 14135 14165 14174 14209 14218 (6 flits)
Class 0:
Remaining flits: 14093 14135 14165 14174 14209 14218 (6 flits)
Measured flits: 14093 14135 14165 14174 14209 14218 (6 flits)
Time taken is 7000 cycles
====== Traffic class 0 ======

Total number of flits generated = 14235, changed lanes = 13592
Overall minimum packet latency = 7 (1 samples)
Overall average packet latency = 26.988 (1 samples)
Overall maximum packet latency = 352 (1 samples)
Overall minimum network latency = 8 (1 samples)
Overall average network latency = 26.8896 (1 samples)
Overall maximum network latency = 353 (1 samples)
Overall minimum flit latency = 8 (1 samples)
Overall average flit latency = 26.971 (1 samples)
Overall maximum flit latency = 353 (1 samples)
Overall minimum fragmentation = 0 (1 samples)
Overall average fragmentation = 0 (1 samples)
Overall maximum fragmentation = 0 (1 samples)
Overall minimum injected packet rate = 0.141333 (1 samples)
Overall average injected packet rate = 0.149458 (1 samples)
Overall maximum injected packet rate = 0.164 (1 samples)
Overall minimum accepted packet rate = 0.131333 (1 samples)
Overall average accepted packet rate = 0.150021 (1 samples)
Overall maximum accepted packet rate = 0.159 (1 samples)
Overall minimum injected flit rate = 0.141333 (1 samples)
Overall average injected flit rate = 0.149458 (1 samples)
Overall maximum injected flit rate = 0.164 (1 samples)
Overall minimum accepted flit rate = 0.131333 (1 samples)
Overall average accepted flit rate = 0.150021 (1 samples)
Overall maximum accepted flit rate = 0.159 (1 samples)
Overall average injected packet size = 1 (1 samples)
Overall average accepted packet size = 1 (1 samples)
Overall average hops = 2.98926 (1 samples)
Overall throughput of the network (flits/cycle) = 4.743
Overall throughput of the network (packets/cycle) = 4.743
Total run time 25.8223
