make: Nothing to be done for 'all'.
Master: Running timer....
Master: Running SRC....
BEGIN Configuration File: ./examples/bitrev
// Topology

topology = torus;
k = 4;
n = 2;

// Routing
routing_function = dim_order;

// Flow control
num_vcs     = 4;
vc_buf_size = 4;
wait_for_tail_credit = 0;

// Router architecture
vc_allocator = islip;
sw_allocator = islip;
alloc_iters  = 1;

credit_delay   = 1;
routing_delay  = 1;
vc_alloc_delay = 1;
sw_alloc_delay = 1;

input_speedup     = 1;
output_speedup    = 1;
internal_speedup  = 1.0;

vc_busy_when_full = 0;

// Traffic
traffic = uniform;
packet_size = 1;

// Simulation
sim_type = throughput;

injection_rate = 0.27;

END Configuration File: ./examples/bitrev
===== Time: 1000 =====
Class 0:
Minimum packet latency = 7
Average packet latency = 26.4706
Maximum packet latency = 77
Minimum network latency = 8
Average network latency = 27.4706
Maximum network latency = 78
Slowest packet = 2360
Minimum flit latency = 8
Average flit latency = 27.4706
Maximum flit latency = 78
Slowest flit = 2360
Minimum fragmentation = 0
Average fragmentation = 0
Maximum fragmentation = 0
Minimum injected packet rate = 0.24 (at node 9)
Average injected packet rate = 0.265062
Maximum injected packet rate = 0.288 (at node 11)
Minimum accepted packet rate = 0.236 (at node 14)
Average accepted packet rate = 0.2595
Maximum accepted packet rate = 0.282 (at node 15)
Minimum injected flit rate = 0.24 (at node 9)
Average injected flit rate = 0.265062
Maximum injected flit rate = 0.288 (at node 11)
Minimum accepted flit rate = 0.236 (at node 14)
Average accepted flit rate = 0.2595
Maximum accepted flit rate = 0.282 (at node 15)
Total number of injected packets = 4241
Total number of injected flits = 4241
Average injected packet length = 1
Total number of accepted packets = 4152
Total number of accepted flits = 4152
Average accepted packet length = 1
Total in-flight flits = 89 (0 measured)
===== Time: 2000 =====
Class 0:
Minimum packet latency = 7
Average packet latency = 26.544
Maximum packet latency = 82
Minimum network latency = 8
Average network latency = 27.544
Maximum network latency = 83
Slowest packet = 4685
Minimum flit latency = 8
Average flit latency = 27.544
Maximum flit latency = 83
Slowest flit = 4685
Minimum fragmentation = 0
Average fragmentation = 0
Maximum fragmentation = 0
Minimum injected packet rate = 0.246 (at node 9)
Average injected packet rate = 0.265375
Maximum injected packet rate = 0.2865 (at node 2)
Minimum accepted packet rate = 0.238 (at node 4)
Average accepted packet rate = 0.261719
Maximum accepted packet rate = 0.2775 (at node 8)
Minimum injected flit rate = 0.246 (at node 9)
Average injected flit rate = 0.265375
Maximum injected flit rate = 0.2865 (at node 2)
Minimum accepted flit rate = 0.238 (at node 4)
Average accepted flit rate = 0.261719
Maximum accepted flit rate = 0.2775 (at node 8)
Total number of injected packets = 8492
Total number of injected flits = 8492
Average injected packet length = 1
Total number of accepted packets = 8375
Total number of accepted flits = 8375
Average accepted packet length = 1
Total in-flight flits = 117 (0 measured)
===== Time: 3000 =====
Class 0:
Minimum packet latency = 7
Average packet latency = 27.1582
Maximum packet latency = 105
Minimum network latency = 8
Average network latency = 28.1582
Maximum network latency = 106
Slowest packet = 8517
Minimum flit latency = 8
Average flit latency = 28.1582
Maximum flit latency = 106
Slowest flit = 8517
Minimum fragmentation = 0
Average fragmentation = 0
Maximum fragmentation = 0
Minimum injected packet rate = 0.257 (at node 4)
Average injected packet rate = 0.27325
Maximum injected packet rate = 0.299 (at node 6)
Minimum accepted packet rate = 0.236 (at node 7)
Average accepted packet rate = 0.27225
Maximum accepted packet rate = 0.299 (at node 11)
Minimum injected flit rate = 0.257 (at node 4)
Average injected flit rate = 0.27325
Maximum injected flit rate = 0.299 (at node 6)
Minimum accepted flit rate = 0.236 (at node 7)
Average accepted flit rate = 0.27225
Maximum accepted flit rate = 0.299 (at node 11)
Total number of injected packets = 4372
Total number of injected flits = 4372
Average injected packet length = 1
Total number of accepted packets = 4356
Total number of accepted flits = 4356
Average accepted packet length = 1
Total in-flight flits = 133 (0 measured)
===== Time: 4000 =====
Class 0:
Minimum packet latency = 7
Average packet latency = 26.43
Maximum packet latency = 120
Minimum network latency = 8
Average network latency = 27.43
Maximum network latency = 121
Slowest packet = 16642
Minimum flit latency = 8
Average flit latency = 27.5448
Maximum flit latency = 121
Slowest flit = 16642
Minimum fragmentation = 0
Average fragmentation = 0
Maximum fragmentation = 0
Minimum injected packet rate = 0.241 (at node 14)
Average injected packet rate = 0.27
Maximum injected packet rate = 0.298 (at node 10)
Minimum accepted packet rate = 0.23 (at node 4)
Average accepted packet rate = 0.2695
Maximum accepted packet rate = 0.299 (at node 9)
Minimum injected flit rate = 0.241 (at node 14)
Average injected flit rate = 0.27
Maximum injected flit rate = 0.298 (at node 10)
Minimum accepted flit rate = 0.23 (at node 4)
Average accepted flit rate = 0.2695
Maximum accepted flit rate = 0.299 (at node 9)
Total number of injected packets = 4320
Total number of injected flits = 4320
Average injected packet length = 1
Total number of accepted packets = 4312
Total number of accepted flits = 4312
Average accepted packet length = 1
Total in-flight flits = 141 (141 measured)
===== Time: 5000 =====
Class 0:
Minimum packet latency = 7
Average packet latency = 26.6859
Maximum packet latency = 120
Minimum network latency = 8
Average network latency = 27.6859
Maximum network latency = 121
Slowest packet = 16642
Minimum flit latency = 8
Average flit latency = 27.7394
Maximum flit latency = 121
Slowest flit = 16642
Minimum fragmentation = 0
Average fragmentation = 0
Maximum fragmentation = 0
Minimum injected packet rate = 0.252 (at node 14)
Average injected packet rate = 0.269031
Maximum injected packet rate = 0.283 (at node 11)
Minimum accepted packet rate = 0.245 (at node 4)
Average accepted packet rate = 0.269406
Maximum accepted packet rate = 0.2815 (at node 10)
Minimum injected flit rate = 0.252 (at node 14)
Average injected flit rate = 0.269031
Maximum injected flit rate = 0.283 (at node 11)
Minimum accepted flit rate = 0.245 (at node 4)
Average accepted flit rate = 0.269406
Maximum accepted flit rate = 0.2815 (at node 10)
Total number of injected packets = 8609
Total number of injected flits = 8609
Average injected packet length = 1
Total number of accepted packets = 8621
Total number of accepted flits = 8621
Average accepted packet length = 1
Total in-flight flits = 121 (121 measured)
===== Time: 6000 =====
Class 0:
Minimum packet latency = 7
Average packet latency = 26.7358
Maximum packet latency = 120
Minimum network latency = 8
Average network latency = 27.7358
Maximum network latency = 121
Slowest packet = 16642
Minimum flit latency = 8
Average flit latency = 27.7708
Maximum flit latency = 121
Slowest flit = 16642
Minimum fragmentation = 0
Average fragmentation = 0
Maximum fragmentation = 0
Minimum injected packet rate = 0.259333 (at node 14)
Average injected packet rate = 0.269729
Maximum injected packet rate = 0.284333 (at node 13)
Minimum accepted packet rate = 0.255 (at node 4)
Average accepted packet rate = 0.270396
Maximum accepted packet rate = 0.281667 (at node 7)
Minimum injected flit rate = 0.259333 (at node 14)
Average injected flit rate = 0.269729
Maximum injected flit rate = 0.284333 (at node 13)
Minimum accepted flit rate = 0.255 (at node 4)
Average accepted flit rate = 0.270396
Maximum accepted flit rate = 0.281667 (at node 7)
Total number of injected packets = 12947
Total number of injected flits = 12947
Average injected packet length = 1
Total number of accepted packets = 12979
Total number of accepted flits = 12979
Average accepted packet length = 1
Total in-flight flits = 101 (101 measured)
Draining remaining packets ...
Class 0:
Remaining flits: 25711 25716 25719 25732 25735 25740 25741 25745 25749 25754 [...] (59 flits)
Measured flits: 25711 25716 25719 25732 25735 25740 25741 25745 25749 25754 [...] (59 flits)
Class 0:
Remaining flits: 25732 25749 25756 25758 25762 25764 25766 25770 25774 25776 [...] (31 flits)
Measured flits: 25732 25749 25756 25758 25762 25764 25766 25770 25774 25776 [...] (31 flits)
Class 0:
Remaining flits: 25776 25779 25786 25789 25798 25800 25803 25806 (8 flits)
Measured flits: 25776 25779 25786 25789 25798 25800 25803 25806 (8 flits)
Class 0:
Remaining flits: 25776 25779 25798 25800 25806 (5 flits)
Measured flits: 25776 25779 25798 25800 25806 (5 flits)
Class 0:
Remaining flits: 25776 25779 25806 (3 flits)
Measured flits: 25776 25779 25806 (3 flits)
Class 0:
Remaining flits: 25776 25779 25806 (3 flits)
Measured flits: 25776 25779 25806 (3 flits)
Class 0:
Remaining flits: 25776 25779 25806 (3 flits)
Measured flits: 25776 25779 25806 (3 flits)
Class 0:
Remaining flits: 25776 25779 25806 (3 flits)
Measured flits: 25776 25779 25806 (3 flits)
Class 0:
Remaining flits: 25776 25779 25806 (3 flits)
Measured flits: 25776 25779 25806 (3 flits)
Class 0:
Remaining flits: 25776 25779 25806 (3 flits)
Measured flits: 25776 25779 25806 (3 flits)
Class 0:
Remaining flits: 25776 25779 25806 (3 flits)
Measured flits: 25776 25779 25806 (3 flits)
Class 0:
Remaining flits: 25776 25779 25806 (3 flits)
Measured flits: 25776 25779 25806 (3 flits)
Class 0:
Remaining flits: 25776 25779 25806 (3 flits)
Measured flits: 25776 25779 25806 (3 flits)
Class 0:
Remaining flits: 25776 25779 25806 (3 flits)
Measured flits: 25776 25779 25806 (3 flits)
Class 0:
Remaining flits: 25776 25779 25806 (3 flits)
Measured flits: 25776 25779 25806 (3 flits)
Class 0:
Remaining flits: 25776 25779 25806 (3 flits)
Measured flits: 25776 25779 25806 (3 flits)
Class 0:
Remaining flits: 25776 25779 25806 (3 flits)
Measured flits: 25776 25779 25806 (3 flits)
Class 0:
Remaining flits: 25776 25779 25806 (3 flits)
Measured flits: 25776 25779 25806 (3 flits)
Class 0:
Remaining flits: 25776 25779 25806 (3 flits)
Measured flits: 25776 25779 25806 (3 flits)
Class 0:
Remaining flits: 25776 25779 25806 (3 flits)
Measured flits: 25776 25779 25806 (3 flits)
Class 0:
Remaining flits: 25776 25779 25806 (3 flits)
Measured flits: 25776 25779 25806 (3 flits)
Class 0:
Remaining flits: 25776 25779 25806 (3 flits)
Measured flits: 25776 25779 25806 (3 flits)
Class 0:
Remaining flits: 25776 25779 25806 (3 flits)
Measured flits: 25776 25779 25806 (3 flits)
Class 0:
Remaining flits: 25776 25779 25806 (3 flits)
Measured flits: 25776 25779 25806 (3 flits)
Class 0:
Remaining flits: 25776 25779 25806 (3 flits)
Measured flits: 25776 25779 25806 (3 flits)
Class 0:
Remaining flits: 25776 25779 25806 (3 flits)
Measured flits: 25776 25779 25806 (3 flits)
Class 0:
Remaining flits: 25776 25779 25806 (3 flits)
Measured flits: 25776 25779 25806 (3 flits)
Class 0:
Remaining flits: 25776 25779 25806 (3 flits)
Measured flits: 25776 25779 25806 (3 flits)
Class 0:
Remaining flits: 25776 25779 25806 (3 flits)
Measured flits: 25776 25779 25806 (3 flits)
Class 0:
Remaining flits: 25776 25779 25806 (3 flits)
Measured flits: 25776 25779 25806 (3 flits)
Class 0:
Remaining flits: 25776 25779 25806 (3 flits)
Measured flits: 25776 25779 25806 (3 flits)
Class 0:
Remaining flits: 25776 25779 25806 (3 flits)
Measured flits: 25776 25779 25806 (3 flits)
Class 0:
Remaining flits: 25776 25779 25806 (3 flits)
Measured flits: 25776 25779 25806 (3 flits)
Class 0:
Remaining flits: 25776 25779 25806 (3 flits)
Measured flits: 25776 25779 25806 (3 flits)
Class 0:
Remaining flits: 25776 25779 25806 (3 flits)
Measured flits: 25776 25779 25806 (3 flits)
Class 0:
Remaining flits: 25776 25779 25806 (3 flits)
Measured flits: 25776 25779 25806 (3 flits)
Class 0:
Remaining flits: 25776 25779 25806 (3 flits)
Measured flits: 25776 25779 25806 (3 flits)
Class 0:
Remaining flits: 25776 25779 25806 (3 flits)
Measured flits: 25776 25779 25806 (3 flits)
Class 0:
Remaining flits: 25776 25779 25806 (3 flits)
Measured flits: 25776 25779 25806 (3 flits)
Class 0:
Remaining flits: 25776 25779 25806 (3 flits)
Measured flits: 25776 25779 25806 (3 flits)
Class 0:
Remaining flits: 25776 25779 25806 (3 flits)
Measured flits: 25776 25779 25806 (3 flits)
Class 0:
Remaining flits: 25776 25779 25806 (3 flits)
Measured flits: 25776 25779 25806 (3 flits)
Class 0:
Remaining flits: 25776 25779 25806 (3 flits)
Measured flits: 25776 25779 25806 (3 flits)
Class 0:
Remaining flits: 25776 25779 25806 (3 flits)
Measured flits: 25776 25779 25806 (3 flits)
Class 0:
Remaining flits: 25776 25779 25806 (3 flits)
Measured flits: 25776 25779 25806 (3 flits)
Class 0:
Remaining flits: 25776 25779 25806 (3 flits)
Measured flits: 25776 25779 25806 (3 flits)
Class 0:
Remaining flits: 25776 25779 25806 (3 flits)
Measured flits: 25776 25779 25806 (3 flits)
Class 0:
Remaining flits: 25776 25779 25806 (3 flits)
Measured flits: 25776 25779 25806 (3 flits)
Class 0:
Remaining flits: 25776 25779 25806 (3 flits)
Measured flits: 25776 25779 25806 (3 flits)
Class 0:
Remaining flits: 25776 25779 25806 (3 flits)
Measured flits: 25776 25779 25806 (3 flits)
Class 0:
Remaining flits: 25776 25779 25806 (3 flits)
Measured flits: 25776 25779 25806 (3 flits)
Class 0:
Remaining flits: 25776 25779 25806 (3 flits)
Measured flits: 25776 25779 25806 (3 flits)
Class 0:
Remaining flits: 25776 25779 25806 (3 flits)
Measured flits: 25776 25779 25806 (3 flits)
Class 0:
Remaining flits: 25776 25779 25806 (3 flits)
Measured flits: 25776 25779 25806 (3 flits)
Class 0:
Remaining flits: 25776 25779 25806 (3 flits)
Measured flits: 25776 25779 25806 (3 flits)
Class 0:
Remaining flits: 25776 25779 25806 (3 flits)
Measured flits: 25776 25779 25806 (3 flits)
Class 0:
Remaining flits: 25776 25779 25806 (3 flits)
Measured flits: 25776 25779 25806 (3 flits)
Class 0:
Remaining flits: 25776 25779 25806 (3 flits)
Measured flits: 25776 25779 25806 (3 flits)
Class 0:
Remaining flits: 25776 25779 25806 (3 flits)
Measured flits: 25776 25779 25806 (3 flits)
Class 0:
Remaining flits: 25776 25779 25806 (3 flits)
Measured flits: 25776 25779 25806 (3 flits)
Class 0:
Remaining flits: 25776 25779 25806 (3 flits)
Measured flits: 25776 25779 25806 (3 flits)
Class 0:
Remaining flits: 25776 25779 25806 (3 flits)
Measured flits: 25776 25779 25806 (3 flits)
Class 0:
Remaining flits: 25776 25779 25806 (3 flits)
Measured flits: 25776 25779 25806 (3 flits)
Class 0:
Remaining flits: 25776 25779 25806 (3 flits)
Measured flits: 25776 25779 25806 (3 flits)
Class 0:
Remaining flits: 25776 25779 25806 (3 flits)
Measured flits: 25776 25779 25806 (3 flits)
Class 0:
Remaining flits: 25776 25779 25806 (3 flits)
Measured flits: 25776 25779 25806 (3 flits)
Class 0:
Remaining flits: 25776 25779 25806 (3 flits)
Measured flits: 25776 25779 25806 (3 flits)
Class 0:
Remaining flits: 25776 25779 25806 (3 flits)
Measured flits: 25776 25779 25806 (3 flits)
Class 0:
Remaining flits: 25776 25779 25806 (3 flits)
Measured flits: 25776 25779 25806 (3 flits)
Class 0:
Remaining flits: 25776 25779 25806 (3 flits)
Measured flits: 25776 25779 25806 (3 flits)
Class 0:
Remaining flits: 25776 25779 25806 (3 flits)
Measured flits: 25776 25779 25806 (3 flits)
Class 0:
Remaining flits: 25776 25779 25806 (3 flits)
Measured flits: 25776 25779 25806 (3 flits)
Class 0:
Remaining flits: 25776 25779 25806 (3 flits)
Measured flits: 25776 25779 25806 (3 flits)
Class 0:
Remaining flits: 25776 25779 25806 (3 flits)
Measured flits: 25776 25779 25806 (3 flits)
Class 0:
Remaining flits: 25776 25779 25806 (3 flits)
Measured flits: 25776 25779 25806 (3 flits)
Class 0:
Remaining flits: 25776 25779 25806 (3 flits)
Measured flits: 25776 25779 25806 (3 flits)
Class 0:
Remaining flits: 25776 25779 25806 (3 flits)
Measured flits: 25776 25779 25806 (3 flits)
Class 0:
Remaining flits: 25776 25779 25806 (3 flits)
Measured flits: 25776 25779 25806 (3 flits)
Class 0:
Remaining flits: 25776 25779 25806 (3 flits)
Measured flits: 25776 25779 25806 (3 flits)
Class 0:
Remaining flits: 25776 25779 25806 (3 flits)
Measured flits: 25776 25779 25806 (3 flits)
Class 0:
Remaining flits: 25776 25779 25806 (3 flits)
Measured flits: 25776 25779 25806 (3 flits)
Class 0:
Remaining flits: 25776 25779 25806 (3 flits)
Measured flits: 25776 25779 25806 (3 flits)
Class 0:
Remaining flits: 25776 25779 25806 (3 flits)
Measured flits: 25776 25779 25806 (3 flits)
Class 0:
Remaining flits: 25776 25779 25806 (3 flits)
Measured flits: 25776 25779 25806 (3 flits)
Class 0:
Remaining flits: 25776 25779 25806 (3 flits)
Measured flits: 25776 25779 25806 (3 flits)
Class 0:
Remaining flits: 25776 25779 25806 (3 flits)
Measured flits: 25776 25779 25806 (3 flits)
Class 0:
Remaining flits: 25776 25779 25806 (3 flits)
Measured flits: 25776 25779 25806 (3 flits)
Class 0:
Remaining flits: 25776 25779 25806 (3 flits)
Measured flits: 25776 25779 25806 (3 flits)
Class 0:
Remaining flits: 25776 25779 25806 (3 flits)
Measured flits: 25776 25779 25806 (3 flits)
Class 0:
Remaining flits: 25776 25779 25806 (3 flits)
Measured flits: 25776 25779 25806 (3 flits)
Class 0:
Remaining flits: 25776 25779 25806 (3 flits)
Measured flits: 25776 25779 25806 (3 flits)
Class 0:
Remaining flits: 25776 25779 25806 (3 flits)
Measured flits: 25776 25779 25806 (3 flits)
Class 0:
Remaining flits: 25776 25779 25806 (3 flits)
Measured flits: 25776 25779 25806 (3 flits)
Class 0:
Remaining flits: 25776 25779 25806 (3 flits)
Measured flits: 25776 25779 25806 (3 flits)
Class 0:
Remaining flits: 25776 25779 25806 (3 flits)
Measured flits: 25776 25779 25806 (3 flits)
Class 0:
Remaining flits: 25776 25779 25806 (3 flits)
Measured flits: 25776 25779 25806 (3 flits)
Class 0:
Remaining flits: 25776 25779 25806 (3 flits)
Measured flits: 25776 25779 25806 (3 flits)
Class 0:
Remaining flits: 25776 25779 25806 (3 flits)
Measured flits: 25776 25779 25806 (3 flits)
Class 0:
Remaining flits: 25776 25779 25806 (3 flits)
Measured flits: 25776 25779 25806 (3 flits)
Class 0:
Remaining flits: 25776 25779 25806 (3 flits)
Measured flits: 25776 25779 25806 (3 flits)
Class 0:
Remaining flits: 25776 25779 25806 (3 flits)
Measured flits: 25776 25779 25806 (3 flits)
Time taken is 7000 cycles
====== Traffic class 0 ======

Total number of flits generated = 25811, changed lanes = 24823
Overall minimum packet latency = 7 (1 samples)
Overall average packet latency = 26.7464 (1 samples)
Overall maximum packet latency = 120 (1 samples)
Overall minimum network latency = 8 (1 samples)
Overall average network latency = 27.7464 (1 samples)
Overall maximum network latency = 121 (1 samples)
Overall minimum flit latency = 8 (1 samples)
Overall average flit latency = 27.7811 (1 samples)
Overall maximum flit latency = 121 (1 samples)
Overall minimum fragmentation = 0 (1 samples)
Overall average fragmentation = 0 (1 samples)
Overall maximum fragmentation = 0 (1 samples)
Overall minimum injected packet rate = 0.259333 (1 samples)
Overall average injected packet rate = 0.269729 (1 samples)
Overall maximum injected packet rate = 0.284333 (1 samples)
Overall minimum accepted packet rate = 0.255 (1 samples)
Overall average accepted packet rate = 0.270396 (1 samples)
Overall maximum accepted packet rate = 0.281667 (1 samples)
Overall minimum injected flit rate = 0.259333 (1 samples)
Overall average injected flit rate = 0.269729 (1 samples)
Overall maximum injected flit rate = 0.284333 (1 samples)
Overall minimum accepted flit rate = 0.255 (1 samples)
Overall average accepted flit rate = 0.270396 (1 samples)
Overall maximum accepted flit rate = 0.281667 (1 samples)
Overall average injected packet size = 1 (1 samples)
Overall average accepted packet size = 1 (1 samples)
Overall average hops = 3.00433 (1 samples)
Overall throughput of the network (flits/cycle) = 8.60267
Overall throughput of the network (packets/cycle) = 8.60267
Total run time 60.9677
