make: Nothing to be done for 'all'.
Master: Running timer....
Master: Running SRC....
BEGIN Configuration File: ./examples/bitrev
// Topology

topology = mesh;
k = 4;
n = 2;

// Routing
routing_function = dor;

// Flow control
num_vcs     = 1;
vc_buf_size = 4;
wait_for_tail_credit = 0;

// Router architecture
vc_allocator = islip;
sw_allocator = islip;
alloc_iters  = 1;

credit_delay   = 1;
routing_delay  = 1;
vc_alloc_delay = 1;
sw_alloc_delay = 1;

input_speedup     = 1;
output_speedup    = 1;
internal_speedup  = 1.0;

vc_busy_when_full = 0;

// Traffic
traffic = neighbor;
packet_size = 2;

// Simulation
sim_type = throughput;

injection_rate = 0.05;

END Configuration File: ./examples/bitrev
===== Time: 1000 =====
Class 0:
Minimum packet latency = 36
Average packet latency = 55.7588
Maximum packet latency = 134
Minimum network latency = 37
Average network latency = 56.19
Maximum network latency = 135
Slowest packet = 489
Minimum flit latency = 32
Average flit latency = 52.3691
Maximum flit latency = 134
Slowest flit = 979
Minimum fragmentation = 2
Average fragmentation = 5.36119
Maximum fragmentation = 88
Minimum injected packet rate = 0.04 (at node 10)
Average injected packet rate = 0.048875
Maximum injected packet rate = 0.061 (at node 1)
Minimum accepted packet rate = 0.038 (at node 11)
Average accepted packet rate = 0.046375
Maximum accepted packet rate = 0.06 (at node 6)
Minimum injected flit rate = 0.08 (at node 10)
Average injected flit rate = 0.09775
Maximum injected flit rate = 0.122 (at node 1)
Minimum accepted flit rate = 0.076 (at node 11)
Average accepted flit rate = 0.093125
Maximum accepted flit rate = 0.12 (at node 6)
Total number of injected packets = 782
Total number of injected flits = 1564
Average injected packet length = 2
Total number of accepted packets = 742
Total number of accepted flits = 1490
Average accepted packet length = 2.00809
Total in-flight flits = 74 (0 measured)
===== Time: 2000 =====
Class 0:
Minimum packet latency = 36
Average packet latency = 55.3298
Maximum packet latency = 134
Minimum network latency = 37
Average network latency = 55.7817
Maximum network latency = 135
Slowest packet = 489
Minimum flit latency = 32
Average flit latency = 52.1028
Maximum flit latency = 134
Slowest flit = 979
Minimum fragmentation = 2
Average fragmentation = 5.11546
Maximum fragmentation = 89
Minimum injected packet rate = 0.0405 (at node 5)
Average injected packet rate = 0.0485937
Maximum injected packet rate = 0.058 (at node 1)
Minimum accepted packet rate = 0.0385 (at node 5)
Average accepted packet rate = 0.0470937
Maximum accepted packet rate = 0.057 (at node 6)
Minimum injected flit rate = 0.081 (at node 5)
Average injected flit rate = 0.0971562
Maximum injected flit rate = 0.116 (at node 1)
Minimum accepted flit rate = 0.077 (at node 5)
Average accepted flit rate = 0.0942812
Maximum accepted flit rate = 0.114 (at node 6)
Total number of injected packets = 1555
Total number of injected flits = 3109
Average injected packet length = 1.99936
Total number of accepted packets = 1507
Total number of accepted flits = 3017
Average accepted packet length = 2.00199
Total in-flight flits = 93 (0 measured)
===== Time: 3000 =====
Class 0:
Minimum packet latency = 35
Average packet latency = 56.5112
Maximum packet latency = 114
Minimum network latency = 36
Average network latency = 56.9908
Maximum network latency = 115
Slowest packet = 1806
Minimum flit latency = 31
Average flit latency = 53.2518
Maximum flit latency = 114
Slowest flit = 3613
Minimum fragmentation = 2
Average fragmentation = 5.17346
Maximum fragmentation = 75
Minimum injected packet rate = 0 (at node 0)
Average injected packet rate = 0.047125
Maximum injected packet rate = 0.061 (at node 14)
Minimum accepted packet rate = 0 (at node 5)
Average accepted packet rate = 0.0475625
Maximum accepted packet rate = 0.063 (at node 3)
Minimum injected flit rate = 0 (at node 0)
Average injected flit rate = 0.09425
Maximum injected flit rate = 0.122 (at node 14)
Minimum accepted flit rate = 0 (at node 5)
Average accepted flit rate = 0.0950625
Maximum accepted flit rate = 0.126 (at node 3)
Total number of injected packets = 754
Total number of injected flits = 1508
Average injected packet length = 2
Total number of accepted packets = 761
Total number of accepted flits = 1521
Average accepted packet length = 1.99869
Total in-flight flits = 80 (0 measured)
===== Time: 4000 =====
Class 0:
Minimum packet latency = 36
Average packet latency = 54.0417
Maximum packet latency = 152
Minimum network latency = 37
Average network latency = 54.2906
Maximum network latency = 153
Slowest packet = 2889
Minimum flit latency = 32
Average flit latency = 50.7442
Maximum flit latency = 152
Slowest flit = 5779
Minimum fragmentation = 2
Average fragmentation = 5.17698
Maximum fragmentation = 94
Minimum injected packet rate = 0 (at node 0)
Average injected packet rate = 0.046125
Maximum injected packet rate = 0.062 (at node 9)
Minimum accepted packet rate = 0 (at node 5)
Average accepted packet rate = 0.0455625
Maximum accepted packet rate = 0.06 (at node 14)
Minimum injected flit rate = 0 (at node 0)
Average injected flit rate = 0.0921875
Maximum injected flit rate = 0.124 (at node 9)
Minimum accepted flit rate = 0 (at node 5)
Average accepted flit rate = 0.091375
Maximum accepted flit rate = 0.119 (at node 14)
Total number of injected packets = 738
Total number of injected flits = 1475
Average injected packet length = 1.99864
Total number of accepted packets = 729
Total number of accepted flits = 1462
Average accepted packet length = 2.00549
Total in-flight flits = 94 (80 measured)
===== Time: 5000 =====
Class 0:
Minimum packet latency = 36
Average packet latency = 54.4689
Maximum packet latency = 152
Minimum network latency = 37
Average network latency = 54.7662
Maximum network latency = 153
Slowest packet = 2889
Minimum flit latency = 32
Average flit latency = 51.114
Maximum flit latency = 152
Slowest flit = 5779
Minimum fragmentation = 2
Average fragmentation = 5.24647
Maximum fragmentation = 107
Minimum injected packet rate = 0 (at node 0)
Average injected packet rate = 0.0455625
Maximum injected packet rate = 0.0605 (at node 9)
Minimum accepted packet rate = 0 (at node 5)
Average accepted packet rate = 0.0453125
Maximum accepted packet rate = 0.0615 (at node 14)
Minimum injected flit rate = 0 (at node 0)
Average injected flit rate = 0.091125
Maximum injected flit rate = 0.121 (at node 9)
Minimum accepted flit rate = 0 (at node 5)
Average accepted flit rate = 0.0907188
Maximum accepted flit rate = 0.1225 (at node 14)
Total number of injected packets = 1458
Total number of injected flits = 2916
Average injected packet length = 2
Total number of accepted packets = 1450
Total number of accepted flits = 2903
Average accepted packet length = 2.00207
Total in-flight flits = 93 (79 measured)
===== Time: 6000 =====
Class 0:
Minimum packet latency = 36
Average packet latency = 54.8327
Maximum packet latency = 152
Minimum network latency = 37
Average network latency = 55.2272
Maximum network latency = 153
Slowest packet = 2889
Minimum flit latency = 32
Average flit latency = 51.587
Maximum flit latency = 152
Slowest flit = 5779
Minimum fragmentation = 2
Average fragmentation = 5.13755
Maximum fragmentation = 107
Minimum injected packet rate = 0 (at node 0)
Average injected packet rate = 0.0455417
Maximum injected packet rate = 0.056 (at node 1)
Minimum accepted packet rate = 0 (at node 5)
Average accepted packet rate = 0.0455417
Maximum accepted packet rate = 0.057 (at node 6)
Minimum injected flit rate = 0 (at node 0)
Average injected flit rate = 0.0910625
Maximum injected flit rate = 0.112 (at node 1)
Minimum accepted flit rate = 0 (at node 5)
Average accepted flit rate = 0.0912083
Maximum accepted flit rate = 0.114 (at node 6)
Total number of injected packets = 2186
Total number of injected flits = 4371
Average injected packet length = 1.99954
Total number of accepted packets = 2186
Total number of accepted flits = 4378
Average accepted packet length = 2.00274
Total in-flight flits = 74 (60 measured)
Draining remaining packets ...
Class 0:
Remaining flits: 2360 2361 2382 2383 2414 2415 2490 2491 2498 2499 [...] (61 flits)
Measured flits: 8893 8913 8922 8923 8930 8931 8934 8935 8937 8946 [...] (47 flits)
Class 0:
Remaining flits: 2360 2361 2382 2383 2414 2415 2490 2491 2498 2499 [...] (45 flits)
Measured flits: 8893 8930 8931 8937 8946 8947 8956 8957 8958 8959 [...] (31 flits)
Class 0:
Remaining flits: 2360 2361 2382 2383 2414 2415 2490 2491 2498 2499 [...] (37 flits)
Measured flits: 8893 8937 8956 8957 8958 8959 8966 8967 8972 8973 [...] (23 flits)
Class 0:
Remaining flits: 2360 2361 2382 2383 2414 2415 2490 2491 2498 2499 [...] (30 flits)
Measured flits: 8893 8937 8956 8957 8966 8967 8972 8973 8974 8975 [...] (16 flits)
Class 0:
Remaining flits: 2360 2361 2382 2383 2414 2415 2490 2491 2498 2499 [...] (25 flits)
Measured flits: 8893 8937 8956 8957 8966 8967 8982 8983 8985 8986 [...] (11 flits)
Class 0:
Remaining flits: 2360 2361 2382 2383 2414 2415 2490 2491 2498 2499 [...] (21 flits)
Measured flits: 8893 8937 8966 8967 8983 8986 8987 (7 flits)
Class 0:
Remaining flits: 2360 2361 2382 2383 2414 2415 2490 2491 2498 2499 [...] (19 flits)
Measured flits: 8893 8937 8983 8986 8987 (5 flits)
Class 0:
Remaining flits: 2360 2361 2382 2383 2414 2415 2490 2491 2498 2499 [...] (19 flits)
Measured flits: 8893 8937 8983 8986 8987 (5 flits)
Class 0:
Remaining flits: 2360 2361 2382 2383 2414 2415 2490 2491 2498 2499 [...] (17 flits)
Measured flits: 8893 8937 8983 (3 flits)
Class 0:
Remaining flits: 2360 2361 2382 2383 2414 2415 2490 2491 2498 2499 [...] (17 flits)
Measured flits: 8893 8937 8983 (3 flits)
Class 0:
Remaining flits: 2360 2361 2382 2383 2414 2415 2490 2491 2498 2499 [...] (17 flits)
Measured flits: 8893 8937 8983 (3 flits)
Class 0:
Remaining flits: 2360 2361 2382 2383 2414 2415 2490 2491 2498 2499 [...] (17 flits)
Measured flits: 8893 8937 8983 (3 flits)
Class 0:
Remaining flits: 2360 2361 2382 2383 2414 2415 2490 2491 2498 2499 [...] (17 flits)
Measured flits: 8893 8937 8983 (3 flits)
Class 0:
Remaining flits: 2360 2361 2382 2383 2414 2415 2490 2491 2498 2499 [...] (17 flits)
Measured flits: 8893 8937 8983 (3 flits)
Class 0:
Remaining flits: 2360 2361 2382 2383 2414 2415 2490 2491 2498 2499 [...] (17 flits)
Measured flits: 8893 8937 8983 (3 flits)
Class 0:
Remaining flits: 2360 2361 2382 2383 2414 2415 2490 2491 2498 2499 [...] (17 flits)
Measured flits: 8893 8937 8983 (3 flits)
Class 0:
Remaining flits: 2360 2361 2382 2383 2414 2415 2490 2491 2498 2499 [...] (17 flits)
Measured flits: 8893 8937 8983 (3 flits)
Class 0:
Remaining flits: 2360 2361 2382 2383 2414 2415 2490 2491 2498 2499 [...] (17 flits)
Measured flits: 8893 8937 8983 (3 flits)
Class 0:
Remaining flits: 2360 2361 2382 2383 2414 2415 2490 2491 2498 2499 [...] (17 flits)
Measured flits: 8893 8937 8983 (3 flits)
Class 0:
Remaining flits: 2360 2361 2382 2383 2414 2415 2490 2491 2498 2499 [...] (17 flits)
Measured flits: 8893 8937 8983 (3 flits)
Class 0:
Remaining flits: 2360 2361 2382 2383 2414 2415 2490 2491 2498 2499 [...] (17 flits)
Measured flits: 8893 8937 8983 (3 flits)
Class 0:
Remaining flits: 2360 2361 2382 2383 2414 2415 2490 2491 2498 2499 [...] (17 flits)
Measured flits: 8893 8937 8983 (3 flits)
Class 0:
Remaining flits: 2360 2361 2382 2383 2414 2415 2490 2491 2498 2499 [...] (17 flits)
Measured flits: 8893 8937 8983 (3 flits)
Class 0:
Remaining flits: 2360 2361 2382 2383 2414 2415 2490 2491 2498 2499 [...] (17 flits)
Measured flits: 8893 8937 8983 (3 flits)
Class 0:
Remaining flits: 2360 2361 2382 2383 2414 2415 2490 2491 2498 2499 [...] (17 flits)
Measured flits: 8893 8937 8983 (3 flits)
Class 0:
Remaining flits: 2360 2361 2382 2383 2414 2415 2490 2491 2498 2499 [...] (17 flits)
Measured flits: 8893 8937 8983 (3 flits)
Class 0:
Remaining flits: 2360 2361 2382 2383 2414 2415 2490 2491 2498 2499 [...] (17 flits)
Measured flits: 8893 8937 8983 (3 flits)
Class 0:
Remaining flits: 2360 2361 2382 2383 2414 2415 2490 2491 2498 2499 [...] (17 flits)
Measured flits: 8893 8937 8983 (3 flits)
Class 0:
Remaining flits: 2360 2361 2382 2383 2414 2415 2490 2491 2498 2499 [...] (17 flits)
Measured flits: 8893 8937 8983 (3 flits)
Class 0:
Remaining flits: 2360 2361 2382 2383 2414 2415 2490 2491 2498 2499 [...] (17 flits)
Measured flits: 8893 8937 8983 (3 flits)
Class 0:
Remaining flits: 2360 2361 2382 2383 2414 2415 2490 2491 2498 2499 [...] (17 flits)
Measured flits: 8893 8937 8983 (3 flits)
Class 0:
Remaining flits: 2360 2361 2382 2383 2414 2415 2490 2491 2498 2499 [...] (17 flits)
Measured flits: 8893 8937 8983 (3 flits)
Class 0:
Remaining flits: 2360 2361 2382 2383 2414 2415 2490 2491 2498 2499 [...] (17 flits)
Measured flits: 8893 8937 8983 (3 flits)
Class 0:
Remaining flits: 2360 2361 2382 2383 2414 2415 2490 2491 2498 2499 [...] (17 flits)
Measured flits: 8893 8937 8983 (3 flits)
Class 0:
Remaining flits: 2360 2361 2382 2383 2414 2415 2490 2491 2498 2499 [...] (17 flits)
Measured flits: 8893 8937 8983 (3 flits)
Class 0:
Remaining flits: 2360 2361 2382 2383 2414 2415 2490 2491 2498 2499 [...] (17 flits)
Measured flits: 8893 8937 8983 (3 flits)
Class 0:
Remaining flits: 2360 2361 2382 2383 2414 2415 2490 2491 2498 2499 [...] (17 flits)
Measured flits: 8893 8937 8983 (3 flits)
Class 0:
Remaining flits: 2360 2361 2382 2383 2414 2415 2490 2491 2498 2499 [...] (17 flits)
Measured flits: 8893 8937 8983 (3 flits)
Class 0:
Remaining flits: 2360 2361 2382 2383 2414 2415 2490 2491 2498 2499 [...] (17 flits)
Measured flits: 8893 8937 8983 (3 flits)
Class 0:
Remaining flits: 2360 2361 2382 2383 2414 2415 2490 2491 2498 2499 [...] (17 flits)
Measured flits: 8893 8937 8983 (3 flits)
Class 0:
Remaining flits: 2360 2361 2382 2383 2414 2415 2490 2491 2498 2499 [...] (17 flits)
Measured flits: 8893 8937 8983 (3 flits)
Class 0:
Remaining flits: 2360 2361 2382 2383 2414 2415 2490 2491 2498 2499 [...] (17 flits)
Measured flits: 8893 8937 8983 (3 flits)
Class 0:
Remaining flits: 2360 2361 2382 2383 2414 2415 2490 2491 2498 2499 [...] (17 flits)
Measured flits: 8893 8937 8983 (3 flits)
Class 0:
Remaining flits: 2360 2361 2382 2383 2414 2415 2490 2491 2498 2499 [...] (17 flits)
Measured flits: 8893 8937 8983 (3 flits)
Class 0:
Remaining flits: 2360 2361 2382 2383 2414 2415 2490 2491 2498 2499 [...] (17 flits)
Measured flits: 8893 8937 8983 (3 flits)
Class 0:
Remaining flits: 2360 2361 2382 2383 2414 2415 2490 2491 2498 2499 [...] (17 flits)
Measured flits: 8893 8937 8983 (3 flits)
Class 0:
Remaining flits: 2360 2361 2382 2383 2414 2415 2490 2491 2498 2499 [...] (17 flits)
Measured flits: 8893 8937 8983 (3 flits)
Class 0:
Remaining flits: 2360 2361 2382 2383 2414 2415 2490 2491 2498 2499 [...] (17 flits)
Measured flits: 8893 8937 8983 (3 flits)
Class 0:
Remaining flits: 2360 2361 2382 2383 2414 2415 2490 2491 2498 2499 [...] (17 flits)
Measured flits: 8893 8937 8983 (3 flits)
Class 0:
Remaining flits: 2360 2361 2382 2383 2414 2415 2490 2491 2498 2499 [...] (17 flits)
Measured flits: 8893 8937 8983 (3 flits)
Class 0:
Remaining flits: 2360 2361 2382 2383 2414 2415 2490 2491 2498 2499 [...] (17 flits)
Measured flits: 8893 8937 8983 (3 flits)
Class 0:
Remaining flits: 2360 2361 2382 2383 2414 2415 2490 2491 2498 2499 [...] (17 flits)
Measured flits: 8893 8937 8983 (3 flits)
Class 0:
Remaining flits: 2360 2361 2382 2383 2414 2415 2490 2491 2498 2499 [...] (17 flits)
Measured flits: 8893 8937 8983 (3 flits)
Class 0:
Remaining flits: 2360 2361 2382 2383 2414 2415 2490 2491 2498 2499 [...] (17 flits)
Measured flits: 8893 8937 8983 (3 flits)
Class 0:
Remaining flits: 2360 2361 2382 2383 2414 2415 2490 2491 2498 2499 [...] (17 flits)
Measured flits: 8893 8937 8983 (3 flits)
Class 0:
Remaining flits: 2360 2361 2382 2383 2414 2415 2490 2491 2498 2499 [...] (17 flits)
Measured flits: 8893 8937 8983 (3 flits)
Class 0:
Remaining flits: 2360 2361 2382 2383 2414 2415 2490 2491 2498 2499 [...] (17 flits)
Measured flits: 8893 8937 8983 (3 flits)
Class 0:
Remaining flits: 2360 2361 2382 2383 2414 2415 2490 2491 2498 2499 [...] (17 flits)
Measured flits: 8893 8937 8983 (3 flits)
Class 0:
Remaining flits: 2360 2361 2382 2383 2414 2415 2490 2491 2498 2499 [...] (17 flits)
Measured flits: 8893 8937 8983 (3 flits)
Class 0:
Remaining flits: 2360 2361 2382 2383 2414 2415 2490 2491 2498 2499 [...] (17 flits)
Measured flits: 8893 8937 8983 (3 flits)
Class 0:
Remaining flits: 2360 2361 2382 2383 2414 2415 2490 2491 2498 2499 [...] (17 flits)
Measured flits: 8893 8937 8983 (3 flits)
Class 0:
Remaining flits: 2360 2361 2382 2383 2414 2415 2490 2491 2498 2499 [...] (17 flits)
Measured flits: 8893 8937 8983 (3 flits)
Class 0:
Remaining flits: 2360 2361 2382 2383 2414 2415 2490 2491 2498 2499 [...] (17 flits)
Measured flits: 8893 8937 8983 (3 flits)
Class 0:
Remaining flits: 2360 2361 2382 2383 2414 2415 2490 2491 2498 2499 [...] (17 flits)
Measured flits: 8893 8937 8983 (3 flits)
Class 0:
Remaining flits: 2360 2361 2382 2383 2414 2415 2490 2491 2498 2499 [...] (17 flits)
Measured flits: 8893 8937 8983 (3 flits)
Class 0:
Remaining flits: 2360 2361 2382 2383 2414 2415 2490 2491 2498 2499 [...] (17 flits)
Measured flits: 8893 8937 8983 (3 flits)
Class 0:
Remaining flits: 2360 2361 2382 2383 2414 2415 2490 2491 2498 2499 [...] (17 flits)
Measured flits: 8893 8937 8983 (3 flits)
Class 0:
Remaining flits: 2360 2361 2382 2383 2414 2415 2490 2491 2498 2499 [...] (17 flits)
Measured flits: 8893 8937 8983 (3 flits)
Class 0:
Remaining flits: 2360 2361 2382 2383 2414 2415 2490 2491 2498 2499 [...] (17 flits)
Measured flits: 8893 8937 8983 (3 flits)
Class 0:
Remaining flits: 2360 2361 2382 2383 2414 2415 2490 2491 2498 2499 [...] (17 flits)
Measured flits: 8893 8937 8983 (3 flits)
Class 0:
Remaining flits: 2360 2361 2382 2383 2414 2415 2490 2491 2498 2499 [...] (17 flits)
Measured flits: 8893 8937 8983 (3 flits)
Class 0:
Remaining flits: 2360 2361 2382 2383 2414 2415 2490 2491 2498 2499 [...] (17 flits)
Measured flits: 8893 8937 8983 (3 flits)
Class 0:
Remaining flits: 2360 2361 2382 2383 2414 2415 2490 2491 2498 2499 [...] (17 flits)
Measured flits: 8893 8937 8983 (3 flits)
Class 0:
Remaining flits: 2360 2361 2382 2383 2414 2415 2490 2491 2498 2499 [...] (17 flits)
Measured flits: 8893 8937 8983 (3 flits)
Class 0:
Remaining flits: 2360 2361 2382 2383 2414 2415 2490 2491 2498 2499 [...] (17 flits)
Measured flits: 8893 8937 8983 (3 flits)
Class 0:
Remaining flits: 2360 2361 2382 2383 2414 2415 2490 2491 2498 2499 [...] (17 flits)
Measured flits: 8893 8937 8983 (3 flits)
Class 0:
Remaining flits: 2360 2361 2382 2383 2414 2415 2490 2491 2498 2499 [...] (17 flits)
Measured flits: 8893 8937 8983 (3 flits)
Class 0:
Remaining flits: 2360 2361 2382 2383 2414 2415 2490 2491 2498 2499 [...] (17 flits)
Measured flits: 8893 8937 8983 (3 flits)
Class 0:
Remaining flits: 2360 2361 2382 2383 2414 2415 2490 2491 2498 2499 [...] (17 flits)
Measured flits: 8893 8937 8983 (3 flits)
Class 0:
Remaining flits: 2360 2361 2382 2383 2414 2415 2490 2491 2498 2499 [...] (17 flits)
Measured flits: 8893 8937 8983 (3 flits)
Class 0:
Remaining flits: 2360 2361 2382 2383 2414 2415 2490 2491 2498 2499 [...] (17 flits)
Measured flits: 8893 8937 8983 (3 flits)
Class 0:
Remaining flits: 2360 2361 2382 2383 2414 2415 2490 2491 2498 2499 [...] (17 flits)
Measured flits: 8893 8937 8983 (3 flits)
Class 0:
Remaining flits: 2360 2361 2382 2383 2414 2415 2490 2491 2498 2499 [...] (17 flits)
Measured flits: 8893 8937 8983 (3 flits)
Class 0:
Remaining flits: 2360 2361 2382 2383 2414 2415 2490 2491 2498 2499 [...] (17 flits)
Measured flits: 8893 8937 8983 (3 flits)
Class 0:
Remaining flits: 2360 2361 2382 2383 2414 2415 2490 2491 2498 2499 [...] (17 flits)
Measured flits: 8893 8937 8983 (3 flits)
Class 0:
Remaining flits: 2360 2361 2382 2383 2414 2415 2490 2491 2498 2499 [...] (17 flits)
Measured flits: 8893 8937 8983 (3 flits)
Class 0:
Remaining flits: 2360 2361 2382 2383 2414 2415 2490 2491 2498 2499 [...] (17 flits)
Measured flits: 8893 8937 8983 (3 flits)
Class 0:
Remaining flits: 2360 2361 2382 2383 2414 2415 2490 2491 2498 2499 [...] (17 flits)
Measured flits: 8893 8937 8983 (3 flits)
Class 0:
Remaining flits: 2360 2361 2382 2383 2414 2415 2490 2491 2498 2499 [...] (17 flits)
Measured flits: 8893 8937 8983 (3 flits)
Class 0:
Remaining flits: 2360 2361 2382 2383 2414 2415 2490 2491 2498 2499 [...] (17 flits)
Measured flits: 8893 8937 8983 (3 flits)
Class 0:
Remaining flits: 2360 2361 2382 2383 2414 2415 2490 2491 2498 2499 [...] (17 flits)
Measured flits: 8893 8937 8983 (3 flits)
Class 0:
Remaining flits: 2360 2361 2382 2383 2414 2415 2490 2491 2498 2499 [...] (17 flits)
Measured flits: 8893 8937 8983 (3 flits)
Class 0:
Remaining flits: 2360 2361 2382 2383 2414 2415 2490 2491 2498 2499 [...] (17 flits)
Measured flits: 8893 8937 8983 (3 flits)
Class 0:
Remaining flits: 2360 2361 2382 2383 2414 2415 2490 2491 2498 2499 [...] (17 flits)
Measured flits: 8893 8937 8983 (3 flits)
Class 0:
Remaining flits: 2360 2361 2382 2383 2414 2415 2490 2491 2498 2499 [...] (17 flits)
Measured flits: 8893 8937 8983 (3 flits)
Class 0:
Remaining flits: 2360 2361 2382 2383 2414 2415 2490 2491 2498 2499 [...] (17 flits)
Measured flits: 8893 8937 8983 (3 flits)
Class 0:
Remaining flits: 2360 2361 2382 2383 2414 2415 2490 2491 2498 2499 [...] (17 flits)
Measured flits: 8893 8937 8983 (3 flits)
Class 0:
Remaining flits: 2360 2361 2382 2383 2414 2415 2490 2491 2498 2499 [...] (17 flits)
Measured flits: 8893 8937 8983 (3 flits)
Class 0:
Remaining flits: 2360 2361 2382 2383 2414 2415 2490 2491 2498 2499 [...] (17 flits)
Measured flits: 8893 8937 8983 (3 flits)
Class 0:
Remaining flits: 2360 2361 2382 2383 2414 2415 2490 2491 2498 2499 [...] (17 flits)
Measured flits: 8893 8937 8983 (3 flits)
Class 0:
Remaining flits: 2360 2361 2382 2383 2414 2415 2490 2491 2498 2499 [...] (17 flits)
Measured flits: 8893 8937 8983 (3 flits)
Time taken is 7000 cycles
====== Traffic class 0 ======

Total number of flits generated = 8990, changed lanes = 0
Overall minimum packet latency = 36 (1 samples)
Overall average packet latency = 54.8383 (1 samples)
Overall maximum packet latency = 152 (1 samples)
Overall minimum network latency = 37 (1 samples)
Overall average network latency = 55.2368 (1 samples)
Overall maximum network latency = 153 (1 samples)
Overall minimum flit latency = 32 (1 samples)
Overall average flit latency = 51.609 (1 samples)
Overall maximum flit latency = 152 (1 samples)
Overall minimum fragmentation = 2 (1 samples)
Overall average fragmentation = 5.12093 (1 samples)
Overall maximum fragmentation = 107 (1 samples)
Overall minimum injected packet rate = 0 (1 samples)
Overall average injected packet rate = 0.0455417 (1 samples)
Overall maximum injected packet rate = 0.056 (1 samples)
Overall minimum accepted packet rate = 0 (1 samples)
Overall average accepted packet rate = 0.0455417 (1 samples)
Overall maximum accepted packet rate = 0.057 (1 samples)
Overall minimum injected flit rate = 0 (1 samples)
Overall average injected flit rate = 0.0910625 (1 samples)
Overall maximum injected flit rate = 0.112 (1 samples)
Overall minimum accepted flit rate = 0 (1 samples)
Overall average accepted flit rate = 0.0912083 (1 samples)
Overall maximum accepted flit rate = 0.114 (1 samples)
Overall average injected packet size = 1.99954 (1 samples)
Overall average accepted packet size = 2.00274 (1 samples)
Overall average hops = 4.01145 (1 samples)
Overall throughput of the network (flits/cycle) = 2.991
Overall throughput of the network (packets/cycle) = 1.495
Total run time 270.576
