make: Nothing to be done for 'all'.
Master: Running timer....
Master: Running SRC....
BEGIN Configuration File: ./examples/bitrev
// Topology

topology = mesh;
k = 4;
n = 2;

// Routing
routing_function = dor;

// Flow control
num_vcs     = 1;
vc_buf_size = 4;
wait_for_tail_credit = 0;

// Router architecture
vc_allocator = islip;
sw_allocator = islip;
alloc_iters  = 1;

credit_delay   = 1;
routing_delay  = 1;
vc_alloc_delay = 1;
sw_alloc_delay = 1;

input_speedup     = 1;
output_speedup    = 1;
internal_speedup  = 1.0;

vc_busy_when_full = 0;

// Traffic
traffic = neighbor;
packet_size = 3;

// Simulation
sim_type = throughput;

injection_rate = 0.05;

END Configuration File: ./examples/bitrev
===== Time: 10000 =====
Class 0:
Minimum packet latency = 37
Average packet latency = 66.7817
Maximum packet latency = 210
Minimum network latency = 38
Average network latency = 60.6864
Maximum network latency = 156
Slowest packet = 100
Minimum flit latency = 31
Average flit latency = 54.5599
Maximum flit latency = 154
Slowest flit = 9764
Minimum fragmentation = 3
Average fragmentation = 5.53264
Maximum fragmentation = 101
Minimum injected packet rate = 0.0462 (at node 13)
Average injected packet rate = 0.0494438
Maximum injected packet rate = 0.0531 (at node 4)
Minimum accepted packet rate = 0.0459 (at node 2)
Average accepted packet rate = 0.0492125
Maximum accepted packet rate = 0.0527 (at node 9)
Minimum injected flit rate = 0.1386 (at node 13)
Average injected flit rate = 0.148319
Maximum injected flit rate = 0.1592 (at node 4)
Minimum accepted flit rate = 0.1377 (at node 2)
Average accepted flit rate = 0.147687
Maximum accepted flit rate = 0.1582 (at node 9)
Total number of injected packets = 7911
Total number of injected flits = 23731
Average injected packet length = 2.99975
Total number of accepted packets = 7874
Total number of accepted flits = 23630
Average accepted packet length = 3.00102
Total in-flight flits = 106 (0 measured)
===== Time: 20000 =====
Class 0:
Minimum packet latency = 37
Average packet latency = 66.5473
Maximum packet latency = 222
Minimum network latency = 38
Average network latency = 60.5917
Maximum network latency = 223
Slowest packet = 8596
Minimum flit latency = 31
Average flit latency = 54.495
Maximum flit latency = 217
Slowest flit = 25790
Minimum fragmentation = 3
Average fragmentation = 5.50272
Maximum fragmentation = 150
Minimum injected packet rate = 0.0476 (at node 13)
Average injected packet rate = 0.0500344
Maximum injected packet rate = 0.05255 (at node 4)
Minimum accepted packet rate = 0.04735 (at node 2)
Average accepted packet rate = 0.0498906
Maximum accepted packet rate = 0.0524 (at node 9)
Minimum injected flit rate = 0.1428 (at node 13)
Average injected flit rate = 0.150091
Maximum injected flit rate = 0.15765 (at node 4)
Minimum accepted flit rate = 0.14205 (at node 2)
Average accepted flit rate = 0.149678
Maximum accepted flit rate = 0.1572 (at node 9)
Total number of injected packets = 16011
Total number of injected flits = 48029
Average injected packet length = 2.99975
Total number of accepted packets = 15965
Total number of accepted flits = 47897
Average accepted packet length = 3.00013
Total in-flight flits = 139 (0 measured)
===== Time: 30000 =====
Class 0:
Minimum packet latency = 37
Average packet latency = 66.076
Maximum packet latency = 176
Minimum network latency = 38
Average network latency = 60.6126
Maximum network latency = 154
Slowest packet = 15953
Minimum flit latency = 31
Average flit latency = 54.6325
Maximum flit latency = 147
Slowest flit = 60767
Minimum fragmentation = 3
Average fragmentation = 5.44073
Maximum fragmentation = 96
Minimum injected packet rate = 0.0455 (at node 4)
Average injected packet rate = 0.0495813
Maximum injected packet rate = 0.0548 (at node 13)
Minimum accepted packet rate = 0.0457 (at node 9)
Average accepted packet rate = 0.0495625
Maximum accepted packet rate = 0.0547 (at node 2)
Minimum injected flit rate = 0.1365 (at node 4)
Average injected flit rate = 0.148706
Maximum injected flit rate = 0.1642 (at node 13)
Minimum accepted flit rate = 0.1371 (at node 9)
Average accepted flit rate = 0.148725
Maximum accepted flit rate = 0.1641 (at node 2)
Total number of injected packets = 7933
Total number of injected flits = 23793
Average injected packet length = 2.99924
Total number of accepted packets = 7930
Total number of accepted flits = 23796
Average accepted packet length = 3.00076
Total in-flight flits = 142 (0 measured)
===== Time: 40000 =====
Class 0:
Minimum packet latency = 38
Average packet latency = 65.7511
Maximum packet latency = 199
Minimum network latency = 39
Average network latency = 60.5009
Maximum network latency = 177
Slowest packet = 23951
Minimum flit latency = 32
Average flit latency = 54.5598
Maximum flit latency = 168
Slowest flit = 94811
Minimum fragmentation = 3
Average fragmentation = 5.44247
Maximum fragmentation = 102
Minimum injected packet rate = 0.0478 (at node 11)
Average injected packet rate = 0.0501812
Maximum injected packet rate = 0.0543 (at node 15)
Minimum accepted packet rate = 0.0479 (at node 12)
Average accepted packet rate = 0.050175
Maximum accepted packet rate = 0.0541 (at node 0)
Minimum injected flit rate = 0.1436 (at node 11)
Average injected flit rate = 0.150575
Maximum injected flit rate = 0.1629 (at node 15)
Minimum accepted flit rate = 0.1437 (at node 12)
Average accepted flit rate = 0.150519
Maximum accepted flit rate = 0.1621 (at node 0)
Total number of injected packets = 8029
Total number of injected flits = 24092
Average injected packet length = 3.00062
Total number of accepted packets = 8028
Total number of accepted flits = 24083
Average accepted packet length = 2.99988
Total in-flight flits = 149 (149 measured)
===== Time: 50000 =====
Class 0:
Minimum packet latency = 37
Average packet latency = 65.8847
Maximum packet latency = 217
Minimum network latency = 38
Average network latency = 60.3467
Maximum network latency = 177
Slowest packet = 23951
Minimum flit latency = 31
Average flit latency = 54.3823
Maximum flit latency = 168
Slowest flit = 94811
Minimum fragmentation = 3
Average fragmentation = 5.41182
Maximum fragmentation = 102
Minimum injected packet rate = 0.0482 (at node 13)
Average injected packet rate = 0.0502969
Maximum injected packet rate = 0.0537 (at node 5)
Minimum accepted packet rate = 0.04835 (at node 2)
Average accepted packet rate = 0.0502844
Maximum accepted packet rate = 0.05365 (at node 10)
Minimum injected flit rate = 0.1447 (at node 13)
Average injected flit rate = 0.150903
Maximum injected flit rate = 0.1611 (at node 5)
Minimum accepted flit rate = 0.14505 (at node 2)
Average accepted flit rate = 0.150859
Maximum accepted flit rate = 0.1609 (at node 10)
Total number of injected packets = 16095
Total number of injected flits = 48289
Average injected packet length = 3.00025
Total number of accepted packets = 16091
Total number of accepted flits = 48275
Average accepted packet length = 3.00012
Total in-flight flits = 152 (152 measured)
===== Time: 60000 =====
Class 0:
Minimum packet latency = 37
Average packet latency = 66.3673
Maximum packet latency = 217
Minimum network latency = 38
Average network latency = 60.3029
Maximum network latency = 206
Slowest packet = 23951
Minimum flit latency = 31
Average flit latency = 54.3019
Maximum flit latency = 204
Slowest flit = 140612
Minimum fragmentation = 3
Average fragmentation = 5.42884
Maximum fragmentation = 145
Minimum injected packet rate = 0.0478667 (at node 8)
Average injected packet rate = 0.050175
Maximum injected packet rate = 0.0529 (at node 6)
Minimum accepted packet rate = 0.0478333 (at node 13)
Average accepted packet rate = 0.0501521
Maximum accepted packet rate = 0.053 (at node 11)
Minimum injected flit rate = 0.1436 (at node 8)
Average injected flit rate = 0.150519
Maximum injected flit rate = 0.158767 (at node 6)
Minimum accepted flit rate = 0.1435 (at node 13)
Average accepted flit rate = 0.150458
Maximum accepted flit rate = 0.159067 (at node 11)
Total number of injected packets = 24084
Total number of injected flits = 72249
Average injected packet length = 2.99988
Total number of accepted packets = 24073
Total number of accepted flits = 72220
Average accepted packet length = 3.00004
Total in-flight flits = 174 (174 measured)
Draining remaining packets ...
Class 0:
Remaining flits: 143845 143846 143862 143863 143864 143889 143890 143891 143901 143902 [...] (150 flits)
Measured flits: 143845 143846 143862 143863 143864 143889 143890 143891 143901 143902 [...] (150 flits)
Class 0:
Remaining flits: 143862 143863 143864 143889 143890 143891 143903 143914 143915 143922 [...] (121 flits)
Measured flits: 143862 143863 143864 143889 143890 143891 143903 143914 143915 143922 [...] (121 flits)
Class 0:
Remaining flits: 143864 143889 143890 143891 143922 143923 143924 143935 143936 143955 [...] (97 flits)
Measured flits: 143864 143889 143890 143891 143922 143923 143924 143935 143936 143955 [...] (97 flits)
Class 0:
Remaining flits: 143890 143891 143922 143923 143924 143970 143971 143972 143982 143983 [...] (73 flits)
Measured flits: 143890 143891 143922 143923 143924 143970 143971 143972 143982 143983 [...] (73 flits)
Class 0:
Remaining flits: 143922 143923 143924 143970 143971 143972 143992 143993 144006 144007 [...] (53 flits)
Measured flits: 143922 143923 143924 143970 143971 143972 143992 143993 144006 144007 [...] (53 flits)
Class 0:
Remaining flits: 143970 143971 143972 144006 144007 144008 144010 144011 144026 144030 [...] (37 flits)
Measured flits: 143970 143971 143972 144006 144007 144008 144010 144011 144026 144030 [...] (37 flits)
Class 0:
Remaining flits: 143972 144006 144007 144008 144026 144060 144061 144062 144066 144067 [...] (25 flits)
Measured flits: 143972 144006 144007 144008 144026 144060 144061 144062 144066 144067 [...] (25 flits)
Class 0:
Remaining flits: 144007 144008 144026 144060 144061 144062 144068 144070 144071 144076 [...] (13 flits)
Measured flits: 144007 144008 144026 144060 144061 144062 144068 144070 144071 144076 [...] (13 flits)
Class 0:
Remaining flits: 144026 144060 144061 144062 144068 144070 144071 144076 144077 144080 (10 flits)
Measured flits: 144026 144060 144061 144062 144068 144070 144071 144076 144077 144080 (10 flits)
Class 0:
Remaining flits: 144026 144068 144070 144071 144076 144077 144080 (7 flits)
Measured flits: 144026 144068 144070 144071 144076 144077 144080 (7 flits)
Class 0:
Remaining flits: 144026 144068 144070 144071 144076 144077 144080 (7 flits)
Measured flits: 144026 144068 144070 144071 144076 144077 144080 (7 flits)
Class 0:
Remaining flits: 144026 144068 144070 144071 144076 144077 144080 (7 flits)
Measured flits: 144026 144068 144070 144071 144076 144077 144080 (7 flits)
Class 0:
Remaining flits: 144026 144068 144070 144071 144076 144077 144080 (7 flits)
Measured flits: 144026 144068 144070 144071 144076 144077 144080 (7 flits)
Class 0:
Remaining flits: 144026 144068 144070 144071 144076 144077 144080 (7 flits)
Measured flits: 144026 144068 144070 144071 144076 144077 144080 (7 flits)
Class 0:
Remaining flits: 144026 144068 144070 144071 144076 144077 144080 (7 flits)
Measured flits: 144026 144068 144070 144071 144076 144077 144080 (7 flits)
Class 0:
Remaining flits: 144026 144068 144070 144071 144076 144077 144080 (7 flits)
Measured flits: 144026 144068 144070 144071 144076 144077 144080 (7 flits)
Class 0:
Remaining flits: 144026 144068 144070 144071 144076 144077 144080 (7 flits)
Measured flits: 144026 144068 144070 144071 144076 144077 144080 (7 flits)
Class 0:
Remaining flits: 144026 144068 144070 144071 144076 144077 144080 (7 flits)
Measured flits: 144026 144068 144070 144071 144076 144077 144080 (7 flits)
Class 0:
Remaining flits: 144026 144068 144070 144071 144076 144077 144080 (7 flits)
Measured flits: 144026 144068 144070 144071 144076 144077 144080 (7 flits)
Class 0:
Remaining flits: 144026 144068 144070 144071 144076 144077 144080 (7 flits)
Measured flits: 144026 144068 144070 144071 144076 144077 144080 (7 flits)
Class 0:
Remaining flits: 144026 144068 144070 144071 144076 144077 144080 (7 flits)
Measured flits: 144026 144068 144070 144071 144076 144077 144080 (7 flits)
Class 0:
Remaining flits: 144026 144068 144070 144071 144076 144077 144080 (7 flits)
Measured flits: 144026 144068 144070 144071 144076 144077 144080 (7 flits)
Class 0:
Remaining flits: 144026 144068 144070 144071 144076 144077 144080 (7 flits)
Measured flits: 144026 144068 144070 144071 144076 144077 144080 (7 flits)
Class 0:
Remaining flits: 144026 144068 144070 144071 144076 144077 144080 (7 flits)
Measured flits: 144026 144068 144070 144071 144076 144077 144080 (7 flits)
Class 0:
Remaining flits: 144026 144068 144070 144071 144076 144077 144080 (7 flits)
Measured flits: 144026 144068 144070 144071 144076 144077 144080 (7 flits)
Class 0:
Remaining flits: 144026 144068 144070 144071 144076 144077 144080 (7 flits)
Measured flits: 144026 144068 144070 144071 144076 144077 144080 (7 flits)
Class 0:
Remaining flits: 144026 144068 144070 144071 144076 144077 144080 (7 flits)
Measured flits: 144026 144068 144070 144071 144076 144077 144080 (7 flits)
Class 0:
Remaining flits: 144026 144068 144070 144071 144076 144077 144080 (7 flits)
Measured flits: 144026 144068 144070 144071 144076 144077 144080 (7 flits)
Class 0:
Remaining flits: 144026 144068 144070 144071 144076 144077 144080 (7 flits)
Measured flits: 144026 144068 144070 144071 144076 144077 144080 (7 flits)
Class 0:
Remaining flits: 144026 144068 144070 144071 144076 144077 144080 (7 flits)
Measured flits: 144026 144068 144070 144071 144076 144077 144080 (7 flits)
Class 0:
Remaining flits: 144026 144068 144070 144071 144076 144077 144080 (7 flits)
Measured flits: 144026 144068 144070 144071 144076 144077 144080 (7 flits)
Class 0:
Remaining flits: 144026 144068 144070 144071 144076 144077 144080 (7 flits)
Measured flits: 144026 144068 144070 144071 144076 144077 144080 (7 flits)
Class 0:
Remaining flits: 144026 144068 144070 144071 144076 144077 144080 (7 flits)
Measured flits: 144026 144068 144070 144071 144076 144077 144080 (7 flits)
Class 0:
Remaining flits: 144026 144068 144070 144071 144076 144077 144080 (7 flits)
Measured flits: 144026 144068 144070 144071 144076 144077 144080 (7 flits)
Class 0:
Remaining flits: 144026 144068 144070 144071 144076 144077 144080 (7 flits)
Measured flits: 144026 144068 144070 144071 144076 144077 144080 (7 flits)
Class 0:
Remaining flits: 144026 144068 144070 144071 144076 144077 144080 (7 flits)
Measured flits: 144026 144068 144070 144071 144076 144077 144080 (7 flits)
Class 0:
Remaining flits: 144026 144068 144070 144071 144076 144077 144080 (7 flits)
Measured flits: 144026 144068 144070 144071 144076 144077 144080 (7 flits)
Class 0:
Remaining flits: 144026 144068 144070 144071 144076 144077 144080 (7 flits)
Measured flits: 144026 144068 144070 144071 144076 144077 144080 (7 flits)
Class 0:
Remaining flits: 144026 144068 144070 144071 144076 144077 144080 (7 flits)
Measured flits: 144026 144068 144070 144071 144076 144077 144080 (7 flits)
Class 0:
Remaining flits: 144026 144068 144070 144071 144076 144077 144080 (7 flits)
Measured flits: 144026 144068 144070 144071 144076 144077 144080 (7 flits)
Class 0:
Remaining flits: 144026 144068 144070 144071 144076 144077 144080 (7 flits)
Measured flits: 144026 144068 144070 144071 144076 144077 144080 (7 flits)
Class 0:
Remaining flits: 144026 144068 144070 144071 144076 144077 144080 (7 flits)
Measured flits: 144026 144068 144070 144071 144076 144077 144080 (7 flits)
Class 0:
Remaining flits: 144026 144068 144070 144071 144076 144077 144080 (7 flits)
Measured flits: 144026 144068 144070 144071 144076 144077 144080 (7 flits)
Class 0:
Remaining flits: 144026 144068 144070 144071 144076 144077 144080 (7 flits)
Measured flits: 144026 144068 144070 144071 144076 144077 144080 (7 flits)
Class 0:
Remaining flits: 144026 144068 144070 144071 144076 144077 144080 (7 flits)
Measured flits: 144026 144068 144070 144071 144076 144077 144080 (7 flits)
Class 0:
Remaining flits: 144026 144068 144070 144071 144076 144077 144080 (7 flits)
Measured flits: 144026 144068 144070 144071 144076 144077 144080 (7 flits)
Class 0:
Remaining flits: 144026 144068 144070 144071 144076 144077 144080 (7 flits)
Measured flits: 144026 144068 144070 144071 144076 144077 144080 (7 flits)
Class 0:
Remaining flits: 144026 144068 144070 144071 144076 144077 144080 (7 flits)
Measured flits: 144026 144068 144070 144071 144076 144077 144080 (7 flits)
Class 0:
Remaining flits: 144026 144068 144070 144071 144076 144077 144080 (7 flits)
Measured flits: 144026 144068 144070 144071 144076 144077 144080 (7 flits)
Class 0:
Remaining flits: 144026 144068 144070 144071 144076 144077 144080 (7 flits)
Measured flits: 144026 144068 144070 144071 144076 144077 144080 (7 flits)
Class 0:
Remaining flits: 144026 144068 144070 144071 144076 144077 144080 (7 flits)
Measured flits: 144026 144068 144070 144071 144076 144077 144080 (7 flits)
Class 0:
Remaining flits: 144026 144068 144070 144071 144076 144077 144080 (7 flits)
Measured flits: 144026 144068 144070 144071 144076 144077 144080 (7 flits)
Class 0:
Remaining flits: 144026 144068 144070 144071 144076 144077 144080 (7 flits)
Measured flits: 144026 144068 144070 144071 144076 144077 144080 (7 flits)
Class 0:
Remaining flits: 144026 144068 144070 144071 144076 144077 144080 (7 flits)
Measured flits: 144026 144068 144070 144071 144076 144077 144080 (7 flits)
Class 0:
Remaining flits: 144026 144068 144070 144071 144076 144077 144080 (7 flits)
Measured flits: 144026 144068 144070 144071 144076 144077 144080 (7 flits)
Class 0:
Remaining flits: 144026 144068 144070 144071 144076 144077 144080 (7 flits)
Measured flits: 144026 144068 144070 144071 144076 144077 144080 (7 flits)
Class 0:
Remaining flits: 144026 144068 144070 144071 144076 144077 144080 (7 flits)
Measured flits: 144026 144068 144070 144071 144076 144077 144080 (7 flits)
Class 0:
Remaining flits: 144026 144068 144070 144071 144076 144077 144080 (7 flits)
Measured flits: 144026 144068 144070 144071 144076 144077 144080 (7 flits)
Class 0:
Remaining flits: 144026 144068 144070 144071 144076 144077 144080 (7 flits)
Measured flits: 144026 144068 144070 144071 144076 144077 144080 (7 flits)
Class 0:
Remaining flits: 144026 144068 144070 144071 144076 144077 144080 (7 flits)
Measured flits: 144026 144068 144070 144071 144076 144077 144080 (7 flits)
Class 0:
Remaining flits: 144026 144068 144070 144071 144076 144077 144080 (7 flits)
Measured flits: 144026 144068 144070 144071 144076 144077 144080 (7 flits)
Class 0:
Remaining flits: 144026 144068 144070 144071 144076 144077 144080 (7 flits)
Measured flits: 144026 144068 144070 144071 144076 144077 144080 (7 flits)
Class 0:
Remaining flits: 144026 144068 144070 144071 144076 144077 144080 (7 flits)
Measured flits: 144026 144068 144070 144071 144076 144077 144080 (7 flits)
Class 0:
Remaining flits: 144026 144068 144070 144071 144076 144077 144080 (7 flits)
Measured flits: 144026 144068 144070 144071 144076 144077 144080 (7 flits)
Class 0:
Remaining flits: 144026 144068 144070 144071 144076 144077 144080 (7 flits)
Measured flits: 144026 144068 144070 144071 144076 144077 144080 (7 flits)
Class 0:
Remaining flits: 144026 144068 144070 144071 144076 144077 144080 (7 flits)
Measured flits: 144026 144068 144070 144071 144076 144077 144080 (7 flits)
Class 0:
Remaining flits: 144026 144068 144070 144071 144076 144077 144080 (7 flits)
Measured flits: 144026 144068 144070 144071 144076 144077 144080 (7 flits)
Class 0:
Remaining flits: 144026 144068 144070 144071 144076 144077 144080 (7 flits)
Measured flits: 144026 144068 144070 144071 144076 144077 144080 (7 flits)
Class 0:
Remaining flits: 144026 144068 144070 144071 144076 144077 144080 (7 flits)
Measured flits: 144026 144068 144070 144071 144076 144077 144080 (7 flits)
Class 0:
Remaining flits: 144026 144068 144070 144071 144076 144077 144080 (7 flits)
Measured flits: 144026 144068 144070 144071 144076 144077 144080 (7 flits)
Class 0:
Remaining flits: 144026 144068 144070 144071 144076 144077 144080 (7 flits)
Measured flits: 144026 144068 144070 144071 144076 144077 144080 (7 flits)
Class 0:
Remaining flits: 144026 144068 144070 144071 144076 144077 144080 (7 flits)
Measured flits: 144026 144068 144070 144071 144076 144077 144080 (7 flits)
Class 0:
Remaining flits: 144026 144068 144070 144071 144076 144077 144080 (7 flits)
Measured flits: 144026 144068 144070 144071 144076 144077 144080 (7 flits)
Class 0:
Remaining flits: 144026 144068 144070 144071 144076 144077 144080 (7 flits)
Measured flits: 144026 144068 144070 144071 144076 144077 144080 (7 flits)
Class 0:
Remaining flits: 144026 144068 144070 144071 144076 144077 144080 (7 flits)
Measured flits: 144026 144068 144070 144071 144076 144077 144080 (7 flits)
Class 0:
Remaining flits: 144026 144068 144070 144071 144076 144077 144080 (7 flits)
Measured flits: 144026 144068 144070 144071 144076 144077 144080 (7 flits)
Class 0:
Remaining flits: 144026 144068 144070 144071 144076 144077 144080 (7 flits)
Measured flits: 144026 144068 144070 144071 144076 144077 144080 (7 flits)
Class 0:
Remaining flits: 144026 144068 144070 144071 144076 144077 144080 (7 flits)
Measured flits: 144026 144068 144070 144071 144076 144077 144080 (7 flits)
Class 0:
Remaining flits: 144026 144068 144070 144071 144076 144077 144080 (7 flits)
Measured flits: 144026 144068 144070 144071 144076 144077 144080 (7 flits)
Class 0:
Remaining flits: 144026 144068 144070 144071 144076 144077 144080 (7 flits)
Measured flits: 144026 144068 144070 144071 144076 144077 144080 (7 flits)
Class 0:
Remaining flits: 144026 144068 144070 144071 144076 144077 144080 (7 flits)
Measured flits: 144026 144068 144070 144071 144076 144077 144080 (7 flits)
Class 0:
Remaining flits: 144026 144068 144070 144071 144076 144077 144080 (7 flits)
Measured flits: 144026 144068 144070 144071 144076 144077 144080 (7 flits)
Class 0:
Remaining flits: 144026 144068 144070 144071 144076 144077 144080 (7 flits)
Measured flits: 144026 144068 144070 144071 144076 144077 144080 (7 flits)
Class 0:
Remaining flits: 144026 144068 144070 144071 144076 144077 144080 (7 flits)
Measured flits: 144026 144068 144070 144071 144076 144077 144080 (7 flits)
Class 0:
Remaining flits: 144026 144068 144070 144071 144076 144077 144080 (7 flits)
Measured flits: 144026 144068 144070 144071 144076 144077 144080 (7 flits)
Class 0:
Remaining flits: 144026 144068 144070 144071 144076 144077 144080 (7 flits)
Measured flits: 144026 144068 144070 144071 144076 144077 144080 (7 flits)
Class 0:
Remaining flits: 144026 144068 144070 144071 144076 144077 144080 (7 flits)
Measured flits: 144026 144068 144070 144071 144076 144077 144080 (7 flits)
Class 0:
Remaining flits: 144026 144068 144070 144071 144076 144077 144080 (7 flits)
Measured flits: 144026 144068 144070 144071 144076 144077 144080 (7 flits)
Class 0:
Remaining flits: 144026 144068 144070 144071 144076 144077 144080 (7 flits)
Measured flits: 144026 144068 144070 144071 144076 144077 144080 (7 flits)
Class 0:
Remaining flits: 144026 144068 144070 144071 144076 144077 144080 (7 flits)
Measured flits: 144026 144068 144070 144071 144076 144077 144080 (7 flits)
Class 0:
Remaining flits: 144026 144068 144070 144071 144076 144077 144080 (7 flits)
Measured flits: 144026 144068 144070 144071 144076 144077 144080 (7 flits)
Class 0:
Remaining flits: 144026 144068 144070 144071 144076 144077 144080 (7 flits)
Measured flits: 144026 144068 144070 144071 144076 144077 144080 (7 flits)
Class 0:
Remaining flits: 144026 144068 144070 144071 144076 144077 144080 (7 flits)
Measured flits: 144026 144068 144070 144071 144076 144077 144080 (7 flits)
Class 0:
Remaining flits: 144026 144068 144070 144071 144076 144077 144080 (7 flits)
Measured flits: 144026 144068 144070 144071 144076 144077 144080 (7 flits)
Class 0:
Remaining flits: 144026 144068 144070 144071 144076 144077 144080 (7 flits)
Measured flits: 144026 144068 144070 144071 144076 144077 144080 (7 flits)
Class 0:
Remaining flits: 144026 144068 144070 144071 144076 144077 144080 (7 flits)
Measured flits: 144026 144068 144070 144071 144076 144077 144080 (7 flits)
Class 0:
Remaining flits: 144026 144068 144070 144071 144076 144077 144080 (7 flits)
Measured flits: 144026 144068 144070 144071 144076 144077 144080 (7 flits)
Class 0:
Remaining flits: 144026 144068 144070 144071 144076 144077 144080 (7 flits)
Measured flits: 144026 144068 144070 144071 144076 144077 144080 (7 flits)
Class 0:
Remaining flits: 144026 144068 144070 144071 144076 144077 144080 (7 flits)
Measured flits: 144026 144068 144070 144071 144076 144077 144080 (7 flits)
Class 0:
Remaining flits: 144026 144068 144070 144071 144076 144077 144080 (7 flits)
Measured flits: 144026 144068 144070 144071 144076 144077 144080 (7 flits)
Class 0:
Remaining flits: 144026 144068 144070 144071 144076 144077 144080 (7 flits)
Measured flits: 144026 144068 144070 144071 144076 144077 144080 (7 flits)
Time taken is 61000 cycles
====== Traffic class 0 ======

Total number of flits generated = 144087, changed lanes = 0
Overall minimum packet latency = 37 (1 samples)
Overall average packet latency = 66.4134 (1 samples)
Overall maximum packet latency = 217 (1 samples)
Overall minimum network latency = 38 (1 samples)
Overall average network latency = 60.3268 (1 samples)
Overall maximum network latency = 206 (1 samples)
Overall minimum flit latency = 31 (1 samples)
Overall average flit latency = 54.3254 (1 samples)
Overall maximum flit latency = 204 (1 samples)
Overall minimum fragmentation = 3 (1 samples)
Overall average fragmentation = 5.42714 (1 samples)
Overall maximum fragmentation = 145 (1 samples)
Overall minimum injected packet rate = 0.0478667 (1 samples)
Overall average injected packet rate = 0.050175 (1 samples)
Overall maximum injected packet rate = 0.0529 (1 samples)
Overall minimum accepted packet rate = 0.0478333 (1 samples)
Overall average accepted packet rate = 0.0501521 (1 samples)
Overall maximum accepted packet rate = 0.053 (1 samples)
Overall minimum injected flit rate = 0.1436 (1 samples)
Overall average injected flit rate = 0.150519 (1 samples)
Overall maximum injected flit rate = 0.158767 (1 samples)
Overall minimum accepted flit rate = 0.1435 (1 samples)
Overall average accepted flit rate = 0.150458 (1 samples)
Overall maximum accepted flit rate = 0.159067 (1 samples)
Overall average injected packet size = 2.99988 (1 samples)
Overall average accepted packet size = 3.00004 (1 samples)
Overall average hops = 3.98517 (1 samples)
Overall throughput of the network (flits/cycle) = 4.80267
Overall throughput of the network (packets/cycle) = 1.6008
Total run time 615.202
