make: Nothing to be done for 'all'.
Master: Running timer....
Master: Running SRC....
BEGIN Configuration File: ./examples/bitrev
// Topology

topology = mesh;
k = 4;
n = 2;

// Routing
routing_function = dor;

// Flow control
num_vcs     = 1;
vc_buf_size = 4;
wait_for_tail_credit = 0;

// Router architecture
vc_allocator = islip;
sw_allocator = islip;
alloc_iters  = 1;

credit_delay   = 1;
routing_delay  = 1;
vc_alloc_delay = 1;
sw_alloc_delay = 1;

input_speedup     = 1;
output_speedup    = 1;
internal_speedup  = 1.0;

vc_busy_when_full = 0;

// Traffic
traffic = neighbor;
packet_size = 5;

// Simulation
sim_type = throughput;

injection_rate = 0.05;

END Configuration File: ./examples/bitrev
===== Time: 1000 =====
Class 0:
Minimum packet latency = 39
Average packet latency = 116.704
Maximum packet latency = 268
Minimum network latency = 40
Average network latency = 65.5411
Maximum network latency = 116
Slowest packet = 15
Minimum flit latency = 31
Average flit latency = 53.9173
Maximum flit latency = 101
Slowest flit = 2996
Minimum fragmentation = 3
Average fragmentation = 4.58544
Maximum fragmentation = 17
Minimum injected packet rate = 0.021 (at node 8)
Average injected packet rate = 0.042375
Maximum injected packet rate = 0.048 (at node 2)
Minimum accepted packet rate = 0.019 (at node 13)
Average accepted packet rate = 0.0395
Maximum accepted packet rate = 0.045 (at node 7)
Minimum injected flit rate = 0.103 (at node 8)
Average injected flit rate = 0.209813
Maximum injected flit rate = 0.237 (at node 2)
Minimum accepted flit rate = 0.098 (at node 13)
Average accepted flit rate = 0.198063
Maximum accepted flit rate = 0.225 (at node 7)
Total number of injected packets = 678
Total number of injected flits = 3357
Average injected packet length = 4.95133
Total number of accepted packets = 632
Total number of accepted flits = 3169
Average accepted packet length = 5.01424
Total in-flight flits = 221 (0 measured)
===== Time: 2000 =====
Class 0:
Minimum packet latency = 39
Average packet latency = 160.793
Maximum packet latency = 554
Minimum network latency = 40
Average network latency = 66.5809
Maximum network latency = 116
Slowest packet = 15
Minimum flit latency = 31
Average flit latency = 54.5452
Maximum flit latency = 101
Slowest flit = 2996
Minimum fragmentation = 2
Average fragmentation = 4.54746
Maximum fragmentation = 17
Minimum injected packet rate = 0.0105 (at node 8)
Average injected packet rate = 0.0426562
Maximum injected packet rate = 0.0475 (at node 2)
Minimum accepted packet rate = 0.0095 (at node 13)
Average accepted packet rate = 0.0411562
Maximum accepted packet rate = 0.0465 (at node 7)
Minimum injected flit rate = 0.0515 (at node 8)
Average injected flit rate = 0.212219
Maximum injected flit rate = 0.2365 (at node 2)
Minimum accepted flit rate = 0.049 (at node 13)
Average accepted flit rate = 0.206469
Maximum accepted flit rate = 0.2325 (at node 7)
Total number of injected packets = 1365
Total number of injected flits = 6791
Average injected packet length = 4.97509
Total number of accepted packets = 1317
Total number of accepted flits = 6607
Average accepted packet length = 5.0167
Total in-flight flits = 218 (0 measured)
===== Time: 3000 =====
Class 0:
Minimum packet latency = 40
Average packet latency = 276.378
Maximum packet latency = 671
Minimum network latency = 41
Average network latency = 68.0332
Maximum network latency = 108
Slowest packet = 1311
Minimum flit latency = 31
Average flit latency = 55.3572
Maximum flit latency = 101
Slowest flit = 6881
Minimum fragmentation = 3
Average fragmentation = 4.73449
Maximum fragmentation = 17
Minimum injected packet rate = 0 (at node 8)
Average injected packet rate = 0.0431875
Maximum injected packet rate = 0.047 (at node 0)
Minimum accepted packet rate = 0 (at node 13)
Average accepted packet rate = 0.0433125
Maximum accepted packet rate = 0.048 (at node 5)
Minimum injected flit rate = 0 (at node 8)
Average injected flit rate = 0.21625
Maximum injected flit rate = 0.238 (at node 4)
Minimum accepted flit rate = 0 (at node 13)
Average accepted flit rate = 0.215938
Maximum accepted flit rate = 0.238 (at node 9)
Total number of injected packets = 691
Total number of injected flits = 3460
Average injected packet length = 5.00724
Total number of accepted packets = 693
Total number of accepted flits = 3455
Average accepted packet length = 4.98557
Total in-flight flits = 218 (0 measured)
===== Time: 4000 =====
Class 0:
Minimum packet latency = 41
Average packet latency = 385.668
Maximum packet latency = 798
Minimum network latency = 42
Average network latency = 68.4392
Maximum network latency = 108
Slowest packet = 2058
Minimum flit latency = 31
Average flit latency = 56.0369
Maximum flit latency = 101
Slowest flit = 12331
Minimum fragmentation = 2
Average fragmentation = 4.66126
Maximum fragmentation = 16
Minimum injected packet rate = 0 (at node 8)
Average injected packet rate = 0.0415625
Maximum injected packet rate = 0.048 (at node 0)
Minimum accepted packet rate = 0 (at node 13)
Average accepted packet rate = 0.0413125
Maximum accepted packet rate = 0.048 (at node 10)
Minimum injected flit rate = 0 (at node 8)
Average injected flit rate = 0.207
Maximum injected flit rate = 0.239 (at node 5)
Minimum accepted flit rate = 0 (at node 13)
Average accepted flit rate = 0.206563
Maximum accepted flit rate = 0.24 (at node 15)
Total number of injected packets = 665
Total number of injected flits = 3312
Average injected packet length = 4.98045
Total number of accepted packets = 661
Total number of accepted flits = 3305
Average accepted packet length = 5
Total in-flight flits = 243 (236 measured)
===== Time: 5000 =====
Class 0:
Minimum packet latency = 41
Average packet latency = 411.75
Maximum packet latency = 865
Minimum network latency = 42
Average network latency = 68.797
Maximum network latency = 110
Slowest packet = 2058
Minimum flit latency = 31
Average flit latency = 56.2417
Maximum flit latency = 103
Slowest flit = 14086
Minimum fragmentation = 2
Average fragmentation = 4.66772
Maximum fragmentation = 16
Minimum injected packet rate = 0 (at node 8)
Average injected packet rate = 0.0409062
Maximum injected packet rate = 0.0475 (at node 2)
Minimum accepted packet rate = 0 (at node 13)
Average accepted packet rate = 0.0407812
Maximum accepted packet rate = 0.0475 (at node 10)
Minimum injected flit rate = 0 (at node 8)
Average injected flit rate = 0.204281
Maximum injected flit rate = 0.2375 (at node 10)
Minimum accepted flit rate = 0 (at node 13)
Average accepted flit rate = 0.204187
Maximum accepted flit rate = 0.2375 (at node 15)
Total number of injected packets = 1309
Total number of injected flits = 6537
Average injected packet length = 4.99389
Total number of accepted packets = 1305
Total number of accepted flits = 6534
Average accepted packet length = 5.0069
Total in-flight flits = 229 (222 measured)
===== Time: 6000 =====
Class 0:
Minimum packet latency = 41
Average packet latency = 427.323
Maximum packet latency = 918
Minimum network latency = 42
Average network latency = 68.8693
Maximum network latency = 110
Slowest packet = 2058
Minimum flit latency = 31
Average flit latency = 56.2486
Maximum flit latency = 103
Slowest flit = 14086
Minimum fragmentation = 2
Average fragmentation = 4.64297
Maximum fragmentation = 16
Minimum injected packet rate = 0 (at node 8)
Average injected packet rate = 0.04075
Maximum injected packet rate = 0.0476667 (at node 10)
Minimum accepted packet rate = 0 (at node 13)
Average accepted packet rate = 0.0407708
Maximum accepted packet rate = 0.0476667 (at node 15)
Minimum injected flit rate = 0 (at node 8)
Average injected flit rate = 0.203729
Maximum injected flit rate = 0.238 (at node 10)
Minimum accepted flit rate = 0 (at node 13)
Average accepted flit rate = 0.203875
Maximum accepted flit rate = 0.238333 (at node 15)
Total number of injected packets = 1956
Total number of injected flits = 9779
Average injected packet length = 4.99949
Total number of accepted packets = 1957
Total number of accepted flits = 9786
Average accepted packet length = 5.00051
Total in-flight flits = 212 (205 measured)
Draining remaining packets ...
Class 0:
Remaining flits: 1578 1579 1650 1651 1652 1653 1654 10708 10709 10780 [...] (196 flits)
Measured flits: 10708 10709 10780 10781 10782 10783 10784 19775 19776 19777 [...] (189 flits)
Class 0:
Remaining flits: 1578 1579 1650 1651 1652 1653 1654 10708 10709 10780 [...] (147 flits)
Measured flits: 10708 10709 10780 10781 10782 10783 10784 19779 19845 19846 [...] (140 flits)
Class 0:
Remaining flits: 1578 1579 1650 1651 1652 1653 1654 10708 10709 10780 [...] (129 flits)
Measured flits: 10708 10709 10780 10781 10782 10783 10784 19845 19846 19847 [...] (122 flits)
Class 0:
Remaining flits: 1578 1579 1650 1651 1652 1653 1654 10708 10709 10780 [...] (90 flits)
Measured flits: 10708 10709 10780 10781 10782 10783 10784 19847 19848 19849 [...] (83 flits)
Class 0:
Remaining flits: 1578 1579 1650 1651 1652 1653 1654 10708 10709 10780 [...] (60 flits)
Measured flits: 10708 10709 10780 10781 10782 10783 10784 19915 19916 19917 [...] (53 flits)
Class 0:
Remaining flits: 1578 1579 1650 1651 1652 1653 1654 10708 10709 10780 [...] (46 flits)
Measured flits: 10708 10709 10780 10781 10782 10783 10784 19916 19917 19918 [...] (39 flits)
Class 0:
Remaining flits: 1578 1579 1650 1651 1652 1653 1654 10708 10709 10780 [...] (26 flits)
Measured flits: 10708 10709 10780 10781 10782 10783 10784 19990 19991 19992 [...] (19 flits)
Class 0:
Remaining flits: 1578 1579 1650 1651 1652 1653 1654 10708 10709 10780 [...] (18 flits)
Measured flits: 10708 10709 10780 10781 10782 10783 10784 19991 19992 19993 [...] (11 flits)
Class 0:
Remaining flits: 1578 1579 1650 1651 1652 1653 1654 10708 10709 10780 [...] (14 flits)
Measured flits: 10708 10709 10780 10781 10782 10783 10784 (7 flits)
Class 0:
Remaining flits: 1578 1579 1650 1651 1652 1653 1654 10708 10709 10780 [...] (14 flits)
Measured flits: 10708 10709 10780 10781 10782 10783 10784 (7 flits)
Class 0:
Remaining flits: 1578 1579 1650 1651 1652 1653 1654 10708 10709 10780 [...] (14 flits)
Measured flits: 10708 10709 10780 10781 10782 10783 10784 (7 flits)
Class 0:
Remaining flits: 1578 1579 1650 1651 1652 1653 1654 10708 10709 10780 [...] (14 flits)
Measured flits: 10708 10709 10780 10781 10782 10783 10784 (7 flits)
Class 0:
Remaining flits: 1578 1579 1650 1651 1652 1653 1654 10708 10709 10780 [...] (14 flits)
Measured flits: 10708 10709 10780 10781 10782 10783 10784 (7 flits)
Class 0:
Remaining flits: 1578 1579 1650 1651 1652 1653 1654 10708 10709 10780 [...] (14 flits)
Measured flits: 10708 10709 10780 10781 10782 10783 10784 (7 flits)
Class 0:
Remaining flits: 1578 1579 1650 1651 1652 1653 1654 10708 10709 10780 [...] (14 flits)
Measured flits: 10708 10709 10780 10781 10782 10783 10784 (7 flits)
Class 0:
Remaining flits: 1578 1579 1650 1651 1652 1653 1654 10708 10709 10780 [...] (14 flits)
Measured flits: 10708 10709 10780 10781 10782 10783 10784 (7 flits)
Class 0:
Remaining flits: 1578 1579 1650 1651 1652 1653 1654 10708 10709 10780 [...] (14 flits)
Measured flits: 10708 10709 10780 10781 10782 10783 10784 (7 flits)
Class 0:
Remaining flits: 1578 1579 1650 1651 1652 1653 1654 10708 10709 10780 [...] (14 flits)
Measured flits: 10708 10709 10780 10781 10782 10783 10784 (7 flits)
Class 0:
Remaining flits: 1578 1579 1650 1651 1652 1653 1654 10708 10709 10780 [...] (14 flits)
Measured flits: 10708 10709 10780 10781 10782 10783 10784 (7 flits)
Class 0:
Remaining flits: 1578 1579 1650 1651 1652 1653 1654 10708 10709 10780 [...] (14 flits)
Measured flits: 10708 10709 10780 10781 10782 10783 10784 (7 flits)
Class 0:
Remaining flits: 1578 1579 1650 1651 1652 1653 1654 10708 10709 10780 [...] (14 flits)
Measured flits: 10708 10709 10780 10781 10782 10783 10784 (7 flits)
Class 0:
Remaining flits: 1578 1579 1650 1651 1652 1653 1654 10708 10709 10780 [...] (14 flits)
Measured flits: 10708 10709 10780 10781 10782 10783 10784 (7 flits)
Class 0:
Remaining flits: 1578 1579 1650 1651 1652 1653 1654 10708 10709 10780 [...] (14 flits)
Measured flits: 10708 10709 10780 10781 10782 10783 10784 (7 flits)
Class 0:
Remaining flits: 1578 1579 1650 1651 1652 1653 1654 10708 10709 10780 [...] (14 flits)
Measured flits: 10708 10709 10780 10781 10782 10783 10784 (7 flits)
Class 0:
Remaining flits: 1578 1579 1650 1651 1652 1653 1654 10708 10709 10780 [...] (14 flits)
Measured flits: 10708 10709 10780 10781 10782 10783 10784 (7 flits)
Class 0:
Remaining flits: 1578 1579 1650 1651 1652 1653 1654 10708 10709 10780 [...] (14 flits)
Measured flits: 10708 10709 10780 10781 10782 10783 10784 (7 flits)
Class 0:
Remaining flits: 1578 1579 1650 1651 1652 1653 1654 10708 10709 10780 [...] (14 flits)
Measured flits: 10708 10709 10780 10781 10782 10783 10784 (7 flits)
Class 0:
Remaining flits: 1578 1579 1650 1651 1652 1653 1654 10708 10709 10780 [...] (14 flits)
Measured flits: 10708 10709 10780 10781 10782 10783 10784 (7 flits)
Class 0:
Remaining flits: 1578 1579 1650 1651 1652 1653 1654 10708 10709 10780 [...] (14 flits)
Measured flits: 10708 10709 10780 10781 10782 10783 10784 (7 flits)
Class 0:
Remaining flits: 1578 1579 1650 1651 1652 1653 1654 10708 10709 10780 [...] (14 flits)
Measured flits: 10708 10709 10780 10781 10782 10783 10784 (7 flits)
Class 0:
Remaining flits: 1578 1579 1650 1651 1652 1653 1654 10708 10709 10780 [...] (14 flits)
Measured flits: 10708 10709 10780 10781 10782 10783 10784 (7 flits)
Class 0:
Remaining flits: 1578 1579 1650 1651 1652 1653 1654 10708 10709 10780 [...] (14 flits)
Measured flits: 10708 10709 10780 10781 10782 10783 10784 (7 flits)
Class 0:
Remaining flits: 1578 1579 1650 1651 1652 1653 1654 10708 10709 10780 [...] (14 flits)
Measured flits: 10708 10709 10780 10781 10782 10783 10784 (7 flits)
Class 0:
Remaining flits: 1578 1579 1650 1651 1652 1653 1654 10708 10709 10780 [...] (14 flits)
Measured flits: 10708 10709 10780 10781 10782 10783 10784 (7 flits)
Class 0:
Remaining flits: 1578 1579 1650 1651 1652 1653 1654 10708 10709 10780 [...] (14 flits)
Measured flits: 10708 10709 10780 10781 10782 10783 10784 (7 flits)
Class 0:
Remaining flits: 1578 1579 1650 1651 1652 1653 1654 10708 10709 10780 [...] (14 flits)
Measured flits: 10708 10709 10780 10781 10782 10783 10784 (7 flits)
Class 0:
Remaining flits: 1578 1579 1650 1651 1652 1653 1654 10708 10709 10780 [...] (14 flits)
Measured flits: 10708 10709 10780 10781 10782 10783 10784 (7 flits)
Class 0:
Remaining flits: 1578 1579 1650 1651 1652 1653 1654 10708 10709 10780 [...] (14 flits)
Measured flits: 10708 10709 10780 10781 10782 10783 10784 (7 flits)
Class 0:
Remaining flits: 1578 1579 1650 1651 1652 1653 1654 10708 10709 10780 [...] (14 flits)
Measured flits: 10708 10709 10780 10781 10782 10783 10784 (7 flits)
Class 0:
Remaining flits: 1578 1579 1650 1651 1652 1653 1654 10708 10709 10780 [...] (14 flits)
Measured flits: 10708 10709 10780 10781 10782 10783 10784 (7 flits)
Class 0:
Remaining flits: 1578 1579 1650 1651 1652 1653 1654 10708 10709 10780 [...] (14 flits)
Measured flits: 10708 10709 10780 10781 10782 10783 10784 (7 flits)
Class 0:
Remaining flits: 1578 1579 1650 1651 1652 1653 1654 10708 10709 10780 [...] (14 flits)
Measured flits: 10708 10709 10780 10781 10782 10783 10784 (7 flits)
Class 0:
Remaining flits: 1578 1579 1650 1651 1652 1653 1654 10708 10709 10780 [...] (14 flits)
Measured flits: 10708 10709 10780 10781 10782 10783 10784 (7 flits)
Class 0:
Remaining flits: 1578 1579 1650 1651 1652 1653 1654 10708 10709 10780 [...] (14 flits)
Measured flits: 10708 10709 10780 10781 10782 10783 10784 (7 flits)
Class 0:
Remaining flits: 1578 1579 1650 1651 1652 1653 1654 10708 10709 10780 [...] (14 flits)
Measured flits: 10708 10709 10780 10781 10782 10783 10784 (7 flits)
Class 0:
Remaining flits: 1578 1579 1650 1651 1652 1653 1654 10708 10709 10780 [...] (14 flits)
Measured flits: 10708 10709 10780 10781 10782 10783 10784 (7 flits)
Class 0:
Remaining flits: 1578 1579 1650 1651 1652 1653 1654 10708 10709 10780 [...] (14 flits)
Measured flits: 10708 10709 10780 10781 10782 10783 10784 (7 flits)
Class 0:
Remaining flits: 1578 1579 1650 1651 1652 1653 1654 10708 10709 10780 [...] (14 flits)
Measured flits: 10708 10709 10780 10781 10782 10783 10784 (7 flits)
Class 0:
Remaining flits: 1578 1579 1650 1651 1652 1653 1654 10708 10709 10780 [...] (14 flits)
Measured flits: 10708 10709 10780 10781 10782 10783 10784 (7 flits)
Class 0:
Remaining flits: 1578 1579 1650 1651 1652 1653 1654 10708 10709 10780 [...] (14 flits)
Measured flits: 10708 10709 10780 10781 10782 10783 10784 (7 flits)
Class 0:
Remaining flits: 1578 1579 1650 1651 1652 1653 1654 10708 10709 10780 [...] (14 flits)
Measured flits: 10708 10709 10780 10781 10782 10783 10784 (7 flits)
Class 0:
Remaining flits: 1578 1579 1650 1651 1652 1653 1654 10708 10709 10780 [...] (14 flits)
Measured flits: 10708 10709 10780 10781 10782 10783 10784 (7 flits)
Class 0:
Remaining flits: 1578 1579 1650 1651 1652 1653 1654 10708 10709 10780 [...] (14 flits)
Measured flits: 10708 10709 10780 10781 10782 10783 10784 (7 flits)
Class 0:
Remaining flits: 1578 1579 1650 1651 1652 1653 1654 10708 10709 10780 [...] (14 flits)
Measured flits: 10708 10709 10780 10781 10782 10783 10784 (7 flits)
Class 0:
Remaining flits: 1578 1579 1650 1651 1652 1653 1654 10708 10709 10780 [...] (14 flits)
Measured flits: 10708 10709 10780 10781 10782 10783 10784 (7 flits)
Class 0:
Remaining flits: 1578 1579 1650 1651 1652 1653 1654 10708 10709 10780 [...] (14 flits)
Measured flits: 10708 10709 10780 10781 10782 10783 10784 (7 flits)
Class 0:
Remaining flits: 1578 1579 1650 1651 1652 1653 1654 10708 10709 10780 [...] (14 flits)
Measured flits: 10708 10709 10780 10781 10782 10783 10784 (7 flits)
Class 0:
Remaining flits: 1578 1579 1650 1651 1652 1653 1654 10708 10709 10780 [...] (14 flits)
Measured flits: 10708 10709 10780 10781 10782 10783 10784 (7 flits)
Class 0:
Remaining flits: 1578 1579 1650 1651 1652 1653 1654 10708 10709 10780 [...] (14 flits)
Measured flits: 10708 10709 10780 10781 10782 10783 10784 (7 flits)
Class 0:
Remaining flits: 1578 1579 1650 1651 1652 1653 1654 10708 10709 10780 [...] (14 flits)
Measured flits: 10708 10709 10780 10781 10782 10783 10784 (7 flits)
Class 0:
Remaining flits: 1578 1579 1650 1651 1652 1653 1654 10708 10709 10780 [...] (14 flits)
Measured flits: 10708 10709 10780 10781 10782 10783 10784 (7 flits)
Class 0:
Remaining flits: 1578 1579 1650 1651 1652 1653 1654 10708 10709 10780 [...] (14 flits)
Measured flits: 10708 10709 10780 10781 10782 10783 10784 (7 flits)
Class 0:
Remaining flits: 1578 1579 1650 1651 1652 1653 1654 10708 10709 10780 [...] (14 flits)
Measured flits: 10708 10709 10780 10781 10782 10783 10784 (7 flits)
Class 0:
Remaining flits: 1578 1579 1650 1651 1652 1653 1654 10708 10709 10780 [...] (14 flits)
Measured flits: 10708 10709 10780 10781 10782 10783 10784 (7 flits)
Class 0:
Remaining flits: 1578 1579 1650 1651 1652 1653 1654 10708 10709 10780 [...] (14 flits)
Measured flits: 10708 10709 10780 10781 10782 10783 10784 (7 flits)
Class 0:
Remaining flits: 1578 1579 1650 1651 1652 1653 1654 10708 10709 10780 [...] (14 flits)
Measured flits: 10708 10709 10780 10781 10782 10783 10784 (7 flits)
Class 0:
Remaining flits: 1578 1579 1650 1651 1652 1653 1654 10708 10709 10780 [...] (14 flits)
Measured flits: 10708 10709 10780 10781 10782 10783 10784 (7 flits)
Class 0:
Remaining flits: 1578 1579 1650 1651 1652 1653 1654 10708 10709 10780 [...] (14 flits)
Measured flits: 10708 10709 10780 10781 10782 10783 10784 (7 flits)
Class 0:
Remaining flits: 1578 1579 1650 1651 1652 1653 1654 10708 10709 10780 [...] (14 flits)
Measured flits: 10708 10709 10780 10781 10782 10783 10784 (7 flits)
Class 0:
Remaining flits: 1578 1579 1650 1651 1652 1653 1654 10708 10709 10780 [...] (14 flits)
Measured flits: 10708 10709 10780 10781 10782 10783 10784 (7 flits)
Class 0:
Remaining flits: 1578 1579 1650 1651 1652 1653 1654 10708 10709 10780 [...] (14 flits)
Measured flits: 10708 10709 10780 10781 10782 10783 10784 (7 flits)
Class 0:
Remaining flits: 1578 1579 1650 1651 1652 1653 1654 10708 10709 10780 [...] (14 flits)
Measured flits: 10708 10709 10780 10781 10782 10783 10784 (7 flits)
Class 0:
Remaining flits: 1578 1579 1650 1651 1652 1653 1654 10708 10709 10780 [...] (14 flits)
Measured flits: 10708 10709 10780 10781 10782 10783 10784 (7 flits)
Class 0:
Remaining flits: 1578 1579 1650 1651 1652 1653 1654 10708 10709 10780 [...] (14 flits)
Measured flits: 10708 10709 10780 10781 10782 10783 10784 (7 flits)
Class 0:
Remaining flits: 1578 1579 1650 1651 1652 1653 1654 10708 10709 10780 [...] (14 flits)
Measured flits: 10708 10709 10780 10781 10782 10783 10784 (7 flits)
Class 0:
Remaining flits: 1578 1579 1650 1651 1652 1653 1654 10708 10709 10780 [...] (14 flits)
Measured flits: 10708 10709 10780 10781 10782 10783 10784 (7 flits)
Class 0:
Remaining flits: 1578 1579 1650 1651 1652 1653 1654 10708 10709 10780 [...] (14 flits)
Measured flits: 10708 10709 10780 10781 10782 10783 10784 (7 flits)
Class 0:
Remaining flits: 1578 1579 1650 1651 1652 1653 1654 10708 10709 10780 [...] (14 flits)
Measured flits: 10708 10709 10780 10781 10782 10783 10784 (7 flits)
Class 0:
Remaining flits: 1578 1579 1650 1651 1652 1653 1654 10708 10709 10780 [...] (14 flits)
Measured flits: 10708 10709 10780 10781 10782 10783 10784 (7 flits)
Class 0:
Remaining flits: 1578 1579 1650 1651 1652 1653 1654 10708 10709 10780 [...] (14 flits)
Measured flits: 10708 10709 10780 10781 10782 10783 10784 (7 flits)
Class 0:
Remaining flits: 1578 1579 1650 1651 1652 1653 1654 10708 10709 10780 [...] (14 flits)
Measured flits: 10708 10709 10780 10781 10782 10783 10784 (7 flits)
Class 0:
Remaining flits: 1578 1579 1650 1651 1652 1653 1654 10708 10709 10780 [...] (14 flits)
Measured flits: 10708 10709 10780 10781 10782 10783 10784 (7 flits)
Class 0:
Remaining flits: 1578 1579 1650 1651 1652 1653 1654 10708 10709 10780 [...] (14 flits)
Measured flits: 10708 10709 10780 10781 10782 10783 10784 (7 flits)
Class 0:
Remaining flits: 1578 1579 1650 1651 1652 1653 1654 10708 10709 10780 [...] (14 flits)
Measured flits: 10708 10709 10780 10781 10782 10783 10784 (7 flits)
Class 0:
Remaining flits: 1578 1579 1650 1651 1652 1653 1654 10708 10709 10780 [...] (14 flits)
Measured flits: 10708 10709 10780 10781 10782 10783 10784 (7 flits)
Class 0:
Remaining flits: 1578 1579 1650 1651 1652 1653 1654 10708 10709 10780 [...] (14 flits)
Measured flits: 10708 10709 10780 10781 10782 10783 10784 (7 flits)
Class 0:
Remaining flits: 1578 1579 1650 1651 1652 1653 1654 10708 10709 10780 [...] (14 flits)
Measured flits: 10708 10709 10780 10781 10782 10783 10784 (7 flits)
Class 0:
Remaining flits: 1578 1579 1650 1651 1652 1653 1654 10708 10709 10780 [...] (14 flits)
Measured flits: 10708 10709 10780 10781 10782 10783 10784 (7 flits)
Class 0:
Remaining flits: 1578 1579 1650 1651 1652 1653 1654 10708 10709 10780 [...] (14 flits)
Measured flits: 10708 10709 10780 10781 10782 10783 10784 (7 flits)
Class 0:
Remaining flits: 1578 1579 1650 1651 1652 1653 1654 10708 10709 10780 [...] (14 flits)
Measured flits: 10708 10709 10780 10781 10782 10783 10784 (7 flits)
Class 0:
Remaining flits: 1578 1579 1650 1651 1652 1653 1654 10708 10709 10780 [...] (14 flits)
Measured flits: 10708 10709 10780 10781 10782 10783 10784 (7 flits)
Class 0:
Remaining flits: 1578 1579 1650 1651 1652 1653 1654 10708 10709 10780 [...] (14 flits)
Measured flits: 10708 10709 10780 10781 10782 10783 10784 (7 flits)
Class 0:
Remaining flits: 1578 1579 1650 1651 1652 1653 1654 10708 10709 10780 [...] (14 flits)
Measured flits: 10708 10709 10780 10781 10782 10783 10784 (7 flits)
Class 0:
Remaining flits: 1578 1579 1650 1651 1652 1653 1654 10708 10709 10780 [...] (14 flits)
Measured flits: 10708 10709 10780 10781 10782 10783 10784 (7 flits)
Class 0:
Remaining flits: 1578 1579 1650 1651 1652 1653 1654 10708 10709 10780 [...] (14 flits)
Measured flits: 10708 10709 10780 10781 10782 10783 10784 (7 flits)
Class 0:
Remaining flits: 1578 1579 1650 1651 1652 1653 1654 10708 10709 10780 [...] (14 flits)
Measured flits: 10708 10709 10780 10781 10782 10783 10784 (7 flits)
Class 0:
Remaining flits: 1578 1579 1650 1651 1652 1653 1654 10708 10709 10780 [...] (14 flits)
Measured flits: 10708 10709 10780 10781 10782 10783 10784 (7 flits)
Class 0:
Remaining flits: 1578 1579 1650 1651 1652 1653 1654 10708 10709 10780 [...] (14 flits)
Measured flits: 10708 10709 10780 10781 10782 10783 10784 (7 flits)
Class 0:
Remaining flits: 1578 1579 1650 1651 1652 1653 1654 10708 10709 10780 [...] (14 flits)
Measured flits: 10708 10709 10780 10781 10782 10783 10784 (7 flits)
Class 0:
Remaining flits: 1578 1579 1650 1651 1652 1653 1654 10708 10709 10780 [...] (14 flits)
Measured flits: 10708 10709 10780 10781 10782 10783 10784 (7 flits)
Class 0:
Remaining flits: 1578 1579 1650 1651 1652 1653 1654 10708 10709 10780 [...] (14 flits)
Measured flits: 10708 10709 10780 10781 10782 10783 10784 (7 flits)
Time taken is 7000 cycles
====== Traffic class 0 ======

Total number of flits generated = 20060, changed lanes = 0
Overall minimum packet latency = 41 (1 samples)
Overall average packet latency = 428.831 (1 samples)
Overall maximum packet latency = 933 (1 samples)
Overall minimum network latency = 42 (1 samples)
Overall average network latency = 68.9447 (1 samples)
Overall maximum network latency = 110 (1 samples)
Overall minimum flit latency = 31 (1 samples)
Overall average flit latency = 56.3203 (1 samples)
Overall maximum flit latency = 103 (1 samples)
Overall minimum fragmentation = 2 (1 samples)
Overall average fragmentation = 4.64176 (1 samples)
Overall maximum fragmentation = 16 (1 samples)
Overall minimum injected packet rate = 0 (1 samples)
Overall average injected packet rate = 0.04075 (1 samples)
Overall maximum injected packet rate = 0.0476667 (1 samples)
Overall minimum accepted packet rate = 0 (1 samples)
Overall average accepted packet rate = 0.0407708 (1 samples)
Overall maximum accepted packet rate = 0.0476667 (1 samples)
Overall minimum injected flit rate = 0 (1 samples)
Overall average injected flit rate = 0.203729 (1 samples)
Overall maximum injected flit rate = 0.238 (1 samples)
Overall minimum accepted flit rate = 0 (1 samples)
Overall average accepted flit rate = 0.203875 (1 samples)
Overall maximum accepted flit rate = 0.238333 (1 samples)
Overall average injected packet size = 4.99949 (1 samples)
Overall average accepted packet size = 5.00051 (1 samples)
Overall average hops = 4.13818 (1 samples)
Overall throughput of the network (flits/cycle) = 6.682
Overall throughput of the network (packets/cycle) = 1.336
Total run time 3400.61
