make: Nothing to be done for `all'.
Master: Running timer....
Master: Running SRC....
BEGIN Configuration File: ./examples/bitrev
// Topology

topology = torus;
k = 4;
n = 2;

// Routing
routing_function = dim_order;

// Flow control
num_vcs     = 4;
vc_buf_size = 4;
wait_for_tail_credit = 0;

// Router architecture
vc_allocator = islip;
sw_allocator = islip;
alloc_iters  = 1;

credit_delay   = 1;
routing_delay  = 1;
vc_alloc_delay = 1;
sw_alloc_delay = 1;

input_speedup     = 1;
output_speedup    = 1;
internal_speedup  = 1.0;

vc_busy_when_full = 0;

// Traffic
traffic = uniform;
packet_size = 1;

// Simulation
sim_type = throughput;

injection_rate = 0.39;

END Configuration File: ./examples/bitrev
===== Time: 1000 =====
Class 0:
Minimum packet latency = 8
Average packet latency = 307.202
Maximum packet latency = 614
Minimum network latency = 9
Average network latency = 120.048
Maximum network latency = 195
Slowest packet = 436
Minimum flit latency = 9
Average flit latency = 120.048
Maximum flit latency = 195
Slowest flit = 436
Minimum fragmentation = 0
Average fragmentation = 0
Maximum fragmentation = 0
Minimum injected packet rate = 0.18 (at node 1)
Average injected packet rate = 0.181562
Maximum injected packet rate = 0.183 (at node 9)
Minimum accepted packet rate = 0.144 (at node 5)
Average accepted packet rate = 0.160188
Maximum accepted packet rate = 0.18 (at node 15)
Minimum injected flit rate = 0.18 (at node 1)
Average injected flit rate = 0.181562
Maximum injected flit rate = 0.183 (at node 9)
Minimum accepted flit rate = 0.144 (at node 5)
Average accepted flit rate = 0.160188
Maximum accepted flit rate = 0.18 (at node 15)
Total number of injected packets = 2905
Total number of injected flits = 2905
Average injected packet length = 1
Total number of accepted packets = 2563
Total number of accepted flits = 2563
Average accepted packet length = 1
Total in-flight flits = 352 (0 measured)
===== Time: 2000 =====
Class 0:
Minimum packet latency = 8
Average packet latency = 591.118
Maximum packet latency = 1210
Minimum network latency = 9
Average network latency = 124.113
Maximum network latency = 195
Slowest packet = 436
Minimum flit latency = 9
Average flit latency = 124.113
Maximum flit latency = 195
Slowest flit = 436
Minimum fragmentation = 0
Average fragmentation = 0
Maximum fragmentation = 0
Minimum injected packet rate = 0.1725 (at node 1)
Average injected packet rate = 0.173813
Maximum injected packet rate = 0.174 (at node 2)
Minimum accepted packet rate = 0.145 (at node 14)
Average accepted packet rate = 0.163281
Maximum accepted packet rate = 0.1825 (at node 8)
Minimum injected flit rate = 0.1725 (at node 1)
Average injected flit rate = 0.173813
Maximum injected flit rate = 0.174 (at node 2)
Minimum accepted flit rate = 0.145 (at node 14)
Average accepted flit rate = 0.163281
Maximum accepted flit rate = 0.1825 (at node 8)
Total number of injected packets = 5562
Total number of injected flits = 5562
Average injected packet length = 1
Total number of accepted packets = 5225
Total number of accepted flits = 5225
Average accepted packet length = 1
Total in-flight flits = 351 (0 measured)
===== Time: 3000 =====
Class 0:
Minimum packet latency = 1066
Average packet latency = 1440.86
Maximum packet latency = 1798
Minimum network latency = 97
Average network latency = 127.838
Maximum network latency = 177
Slowest packet = 5240
Minimum flit latency = 97
Average flit latency = 127.838
Maximum flit latency = 177
Slowest flit = 7184
Minimum fragmentation = 0
Average fragmentation = 0
Maximum fragmentation = 0
Minimum injected packet rate = 0.165 (at node 2)
Average injected packet rate = 0.166187
Maximum injected packet rate = 0.167 (at node 1)
Minimum accepted packet rate = 0.138 (at node 4)
Average accepted packet rate = 0.166125
Maximum accepted packet rate = 0.193 (at node 7)
Minimum injected flit rate = 0.165 (at node 2)
Average injected flit rate = 0.166187
Maximum injected flit rate = 0.167 (at node 1)
Minimum accepted flit rate = 0.138 (at node 4)
Average accepted flit rate = 0.166125
Maximum accepted flit rate = 0.193 (at node 7)
Total number of injected packets = 2659
Total number of injected flits = 2659
Average injected packet length = 1
Total number of accepted packets = 2658
Total number of accepted flits = 2658
Average accepted packet length = 1
Total in-flight flits = 351 (0 measured)
===== Time: 4000 =====
Class 0:
Minimum packet latency = 1707
Average packet latency = 2047.5
Maximum packet latency = 2384
Minimum network latency = 97
Average network latency = 126.895
Maximum network latency = 177
Slowest packet = 8239
Minimum flit latency = 97
Average flit latency = 127.213
Maximum flit latency = 192
Slowest flit = 7774
Minimum fragmentation = 0
Average fragmentation = 0
Maximum fragmentation = 0
Minimum injected packet rate = 0.165 (at node 1)
Average injected packet rate = 0.166375
Maximum injected packet rate = 0.167 (at node 2)
Minimum accepted packet rate = 0.142 (at node 5)
Average accepted packet rate = 0.166813
Maximum accepted packet rate = 0.185 (at node 0)
Minimum injected flit rate = 0.165 (at node 1)
Average injected flit rate = 0.166375
Maximum injected flit rate = 0.167 (at node 2)
Minimum accepted flit rate = 0.142 (at node 5)
Average accepted flit rate = 0.166813
Maximum accepted flit rate = 0.185 (at node 0)
Total number of injected packets = 2662
Total number of injected flits = 2662
Average injected packet length = 1
Total number of accepted packets = 2669
Total number of accepted flits = 2669
Average accepted packet length = 1
Total in-flight flits = 347 (347 measured)
===== Time: 5000 =====
Class 0:
Minimum packet latency = 1707
Average packet latency = 2329.7
Maximum packet latency = 2981
Minimum network latency = 97
Average network latency = 127.875
Maximum network latency = 232
Slowest packet = 8239
Minimum flit latency = 97
Average flit latency = 127.97
Maximum flit latency = 232
Slowest flit = 10870
Minimum fragmentation = 0
Average fragmentation = 0
Maximum fragmentation = 0
Minimum injected packet rate = 0.166 (at node 0)
Average injected packet rate = 0.166437
Maximum injected packet rate = 0.167 (at node 7)
Minimum accepted packet rate = 0.154 (at node 13)
Average accepted packet rate = 0.166187
Maximum accepted packet rate = 0.18 (at node 0)
Minimum injected flit rate = 0.166 (at node 0)
Average injected flit rate = 0.166437
Maximum injected flit rate = 0.167 (at node 7)
Minimum accepted flit rate = 0.154 (at node 13)
Average accepted flit rate = 0.166187
Maximum accepted flit rate = 0.18 (at node 0)
Total number of injected packets = 5326
Total number of injected flits = 5326
Average injected packet length = 1
Total number of accepted packets = 5318
Total number of accepted flits = 5318
Average accepted packet length = 1
Total in-flight flits = 359 (359 measured)
===== Time: 6000 =====
Class 0:
Minimum packet latency = 1707
Average packet latency = 2614.27
Maximum packet latency = 3584
Minimum network latency = 97
Average network latency = 127.897
Maximum network latency = 254
Slowest packet = 8239
Minimum flit latency = 97
Average flit latency = 127.959
Maximum flit latency = 254
Slowest flit = 15049
Minimum fragmentation = 0
Average fragmentation = 0
Maximum fragmentation = 0
Minimum injected packet rate = 0.166 (at node 0)
Average injected packet rate = 0.166375
Maximum injected packet rate = 0.166667 (at node 5)
Minimum accepted packet rate = 0.153 (at node 4)
Average accepted packet rate = 0.166042
Maximum accepted packet rate = 0.179 (at node 8)
Minimum injected flit rate = 0.166 (at node 0)
Average injected flit rate = 0.166375
Maximum injected flit rate = 0.166667 (at node 5)
Minimum accepted flit rate = 0.153 (at node 4)
Average accepted flit rate = 0.166042
Maximum accepted flit rate = 0.179 (at node 8)
Total number of injected packets = 7986
Total number of injected flits = 7986
Average injected packet length = 1
Total number of accepted packets = 7970
Total number of accepted flits = 7970
Average accepted packet length = 1
Total in-flight flits = 367 (367 measured)
Draining remaining packets ...
Class 0:
Remaining flits: 15794 15825 15826 15836 15842 15843 15857 15859 15861 15862 [...] (337 flits)
Measured flits: 15794 15825 15826 15836 15842 15843 15857 15859 15861 15862 [...] (337 flits)
Class 0:
Remaining flits: 15794 15826 15836 15843 15857 15859 15861 15862 15869 15870 [...] (313 flits)
Measured flits: 15794 15826 15836 15843 15857 15859 15861 15862 15869 15870 [...] (313 flits)
Class 0:
Remaining flits: 15826 15859 15861 15873 15880 15888 15896 15897 15901 15904 [...] (279 flits)
Measured flits: 15826 15859 15861 15873 15880 15888 15896 15897 15901 15904 [...] (279 flits)
Class 0:
Remaining flits: 15826 15873 15921 15926 15929 15932 15934 15941 15951 15954 [...] (244 flits)
Measured flits: 15826 15873 15921 15926 15929 15932 15934 15941 15951 15954 [...] (244 flits)
Class 0:
Remaining flits: 15921 15954 15955 15958 15965 15967 15968 15980 15985 15988 [...] (213 flits)
Measured flits: 15921 15954 15955 15958 15965 15967 15968 15980 15985 15988 [...] (213 flits)
Class 0:
Remaining flits: 15954 15965 15967 15988 15989 15996 15997 16000 16002 16008 [...] (193 flits)
Measured flits: 15954 15965 15967 15988 15989 15996 15997 16000 16002 16008 [...] (193 flits)
Class 0:
Remaining flits: 15989 15996 15997 16002 16014 16018 16032 16033 16036 16038 [...] (168 flits)
Measured flits: 15989 15996 15997 16002 16014 16018 16032 16033 16036 16038 [...] (168 flits)
Class 0:
Remaining flits: 16014 16018 16032 16033 16038 16040 16049 16050 16051 16061 [...] (144 flits)
Measured flits: 16014 16018 16032 16033 16038 16040 16049 16050 16051 16061 [...] (144 flits)
Class 0:
Remaining flits: 16033 16040 16049 16061 16066 16071 16073 16074 16079 16081 [...] (120 flits)
Measured flits: 16033 16040 16049 16061 16066 16071 16073 16074 16079 16081 [...] (120 flits)
Class 0:
Remaining flits: 16033 16071 16079 16081 16089 16097 16106 16112 16114 16117 [...] (86 flits)
Measured flits: 16033 16071 16079 16081 16089 16097 16106 16112 16114 16117 [...] (86 flits)
Class 0:
Remaining flits: 16033 16089 16106 16112 16114 16117 16119 16125 16128 16130 [...] (64 flits)
Measured flits: 16033 16089 16106 16112 16114 16117 16119 16125 16128 16130 [...] (64 flits)
Class 0:
Remaining flits: 16114 16117 16119 16125 16128 16130 16135 16143 16156 16157 [...] (43 flits)
Measured flits: 16114 16117 16119 16125 16128 16130 16135 16143 16156 16157 [...] (43 flits)
Class 0:
Remaining flits: 16114 16128 16143 16157 16160 16168 16187 16190 16191 16194 [...] (23 flits)
Measured flits: 16114 16128 16143 16157 16160 16168 16187 16190 16191 16194 [...] (23 flits)
Class 0:
Remaining flits: 16143 16168 16190 16191 16204 16205 16208 16209 16211 16212 [...] (14 flits)
Measured flits: 16143 16168 16190 16191 16204 16205 16208 16209 16211 16212 [...] (14 flits)
Class 0:
Remaining flits: 16168 16204 16205 16208 16209 16212 16216 16217 16219 (9 flits)
Measured flits: 16168 16204 16205 16208 16209 16212 16216 16217 16219 (9 flits)
Class 0:
Remaining flits: 16204 16205 16208 16209 16212 16216 16217 16219 (8 flits)
Measured flits: 16204 16205 16208 16209 16212 16216 16217 16219 (8 flits)
Class 0:
Remaining flits: 16204 16205 16208 16209 16212 16216 16217 16219 (8 flits)
Measured flits: 16204 16205 16208 16209 16212 16216 16217 16219 (8 flits)
Class 0:
Remaining flits: 16204 16205 16208 16209 16212 16216 16217 16219 (8 flits)
Measured flits: 16204 16205 16208 16209 16212 16216 16217 16219 (8 flits)
Class 0:
Remaining flits: 16204 16205 16208 16209 16212 16216 16217 16219 (8 flits)
Measured flits: 16204 16205 16208 16209 16212 16216 16217 16219 (8 flits)
Class 0:
Remaining flits: 16204 16205 16208 16209 16212 16216 16217 16219 (8 flits)
Measured flits: 16204 16205 16208 16209 16212 16216 16217 16219 (8 flits)
Class 0:
Remaining flits: 16204 16205 16208 16209 16212 16216 16217 16219 (8 flits)
Measured flits: 16204 16205 16208 16209 16212 16216 16217 16219 (8 flits)
Class 0:
Remaining flits: 16204 16205 16208 16209 16212 16216 16217 16219 (8 flits)
Measured flits: 16204 16205 16208 16209 16212 16216 16217 16219 (8 flits)
Class 0:
Remaining flits: 16204 16205 16208 16209 16212 16216 16217 16219 (8 flits)
Measured flits: 16204 16205 16208 16209 16212 16216 16217 16219 (8 flits)
Class 0:
Remaining flits: 16204 16205 16208 16209 16212 16216 16217 16219 (8 flits)
Measured flits: 16204 16205 16208 16209 16212 16216 16217 16219 (8 flits)
Class 0:
Remaining flits: 16204 16205 16208 16209 16212 16216 16217 16219 (8 flits)
Measured flits: 16204 16205 16208 16209 16212 16216 16217 16219 (8 flits)
Class 0:
Remaining flits: 16204 16205 16208 16209 16212 16216 16217 16219 (8 flits)
Measured flits: 16204 16205 16208 16209 16212 16216 16217 16219 (8 flits)
Class 0:
Remaining flits: 16204 16205 16208 16209 16212 16216 16217 16219 (8 flits)
Measured flits: 16204 16205 16208 16209 16212 16216 16217 16219 (8 flits)
Class 0:
Remaining flits: 16204 16205 16208 16209 16212 16216 16217 16219 (8 flits)
Measured flits: 16204 16205 16208 16209 16212 16216 16217 16219 (8 flits)
Class 0:
Remaining flits: 16204 16205 16208 16209 16212 16216 16217 16219 (8 flits)
Measured flits: 16204 16205 16208 16209 16212 16216 16217 16219 (8 flits)
Class 0:
Remaining flits: 16204 16205 16208 16209 16212 16216 16217 16219 (8 flits)
Measured flits: 16204 16205 16208 16209 16212 16216 16217 16219 (8 flits)
Class 0:
Remaining flits: 16204 16205 16208 16209 16212 16216 16217 16219 (8 flits)
Measured flits: 16204 16205 16208 16209 16212 16216 16217 16219 (8 flits)
Class 0:
Remaining flits: 16204 16205 16208 16209 16212 16216 16217 16219 (8 flits)
Measured flits: 16204 16205 16208 16209 16212 16216 16217 16219 (8 flits)
Class 0:
Remaining flits: 16204 16205 16208 16209 16212 16216 16217 16219 (8 flits)
Measured flits: 16204 16205 16208 16209 16212 16216 16217 16219 (8 flits)
Class 0:
Remaining flits: 16204 16205 16208 16209 16212 16216 16217 16219 (8 flits)
Measured flits: 16204 16205 16208 16209 16212 16216 16217 16219 (8 flits)
Class 0:
Remaining flits: 16204 16205 16208 16209 16212 16216 16217 16219 (8 flits)
Measured flits: 16204 16205 16208 16209 16212 16216 16217 16219 (8 flits)
Class 0:
Remaining flits: 16204 16205 16208 16209 16212 16216 16217 16219 (8 flits)
Measured flits: 16204 16205 16208 16209 16212 16216 16217 16219 (8 flits)
Class 0:
Remaining flits: 16204 16205 16208 16209 16212 16216 16217 16219 (8 flits)
Measured flits: 16204 16205 16208 16209 16212 16216 16217 16219 (8 flits)
Class 0:
Remaining flits: 16204 16205 16208 16209 16212 16216 16217 16219 (8 flits)
Measured flits: 16204 16205 16208 16209 16212 16216 16217 16219 (8 flits)
Class 0:
Remaining flits: 16204 16205 16208 16209 16212 16216 16217 16219 (8 flits)
Measured flits: 16204 16205 16208 16209 16212 16216 16217 16219 (8 flits)
Class 0:
Remaining flits: 16204 16205 16208 16209 16212 16216 16217 16219 (8 flits)
Measured flits: 16204 16205 16208 16209 16212 16216 16217 16219 (8 flits)
Class 0:
Remaining flits: 16204 16205 16208 16209 16212 16216 16217 16219 (8 flits)
Measured flits: 16204 16205 16208 16209 16212 16216 16217 16219 (8 flits)
Class 0:
Remaining flits: 16204 16205 16208 16209 16212 16216 16217 16219 (8 flits)
Measured flits: 16204 16205 16208 16209 16212 16216 16217 16219 (8 flits)
Class 0:
Remaining flits: 16204 16205 16208 16209 16212 16216 16217 16219 (8 flits)
Measured flits: 16204 16205 16208 16209 16212 16216 16217 16219 (8 flits)
Class 0:
Remaining flits: 16204 16205 16208 16209 16212 16216 16217 16219 (8 flits)
Measured flits: 16204 16205 16208 16209 16212 16216 16217 16219 (8 flits)
Class 0:
Remaining flits: 16204 16205 16208 16209 16212 16216 16217 16219 (8 flits)
Measured flits: 16204 16205 16208 16209 16212 16216 16217 16219 (8 flits)
Class 0:
Remaining flits: 16204 16205 16208 16209 16212 16216 16217 16219 (8 flits)
Measured flits: 16204 16205 16208 16209 16212 16216 16217 16219 (8 flits)
Class 0:
Remaining flits: 16204 16205 16208 16209 16212 16216 16217 16219 (8 flits)
Measured flits: 16204 16205 16208 16209 16212 16216 16217 16219 (8 flits)
Class 0:
Remaining flits: 16204 16205 16208 16209 16212 16216 16217 16219 (8 flits)
Measured flits: 16204 16205 16208 16209 16212 16216 16217 16219 (8 flits)
Class 0:
Remaining flits: 16204 16205 16208 16209 16212 16216 16217 16219 (8 flits)
Measured flits: 16204 16205 16208 16209 16212 16216 16217 16219 (8 flits)
Class 0:
Remaining flits: 16204 16205 16208 16209 16212 16216 16217 16219 (8 flits)
Measured flits: 16204 16205 16208 16209 16212 16216 16217 16219 (8 flits)
Class 0:
Remaining flits: 16204 16205 16208 16209 16212 16216 16217 16219 (8 flits)
Measured flits: 16204 16205 16208 16209 16212 16216 16217 16219 (8 flits)
Class 0:
Remaining flits: 16204 16205 16208 16209 16212 16216 16217 16219 (8 flits)
Measured flits: 16204 16205 16208 16209 16212 16216 16217 16219 (8 flits)
Class 0:
Remaining flits: 16204 16205 16208 16209 16212 16216 16217 16219 (8 flits)
Measured flits: 16204 16205 16208 16209 16212 16216 16217 16219 (8 flits)
Class 0:
Remaining flits: 16204 16205 16208 16209 16212 16216 16217 16219 (8 flits)
Measured flits: 16204 16205 16208 16209 16212 16216 16217 16219 (8 flits)
Class 0:
Remaining flits: 16204 16205 16208 16209 16212 16216 16217 16219 (8 flits)
Measured flits: 16204 16205 16208 16209 16212 16216 16217 16219 (8 flits)
Class 0:
Remaining flits: 16204 16205 16208 16209 16212 16216 16217 16219 (8 flits)
Measured flits: 16204 16205 16208 16209 16212 16216 16217 16219 (8 flits)
Class 0:
Remaining flits: 16204 16205 16208 16209 16212 16216 16217 16219 (8 flits)
Measured flits: 16204 16205 16208 16209 16212 16216 16217 16219 (8 flits)
Class 0:
Remaining flits: 16204 16205 16208 16209 16212 16216 16217 16219 (8 flits)
Measured flits: 16204 16205 16208 16209 16212 16216 16217 16219 (8 flits)
Class 0:
Remaining flits: 16204 16205 16208 16209 16212 16216 16217 16219 (8 flits)
Measured flits: 16204 16205 16208 16209 16212 16216 16217 16219 (8 flits)
Class 0:
Remaining flits: 16204 16205 16208 16209 16212 16216 16217 16219 (8 flits)
Measured flits: 16204 16205 16208 16209 16212 16216 16217 16219 (8 flits)
Class 0:
Remaining flits: 16204 16205 16208 16209 16212 16216 16217 16219 (8 flits)
Measured flits: 16204 16205 16208 16209 16212 16216 16217 16219 (8 flits)
Class 0:
Remaining flits: 16204 16205 16208 16209 16212 16216 16217 16219 (8 flits)
Measured flits: 16204 16205 16208 16209 16212 16216 16217 16219 (8 flits)
Class 0:
Remaining flits: 16204 16205 16208 16209 16212 16216 16217 16219 (8 flits)
Measured flits: 16204 16205 16208 16209 16212 16216 16217 16219 (8 flits)
Class 0:
Remaining flits: 16204 16205 16208 16209 16212 16216 16217 16219 (8 flits)
Measured flits: 16204 16205 16208 16209 16212 16216 16217 16219 (8 flits)
Class 0:
Remaining flits: 16204 16205 16208 16209 16212 16216 16217 16219 (8 flits)
Measured flits: 16204 16205 16208 16209 16212 16216 16217 16219 (8 flits)
Class 0:
Remaining flits: 16204 16205 16208 16209 16212 16216 16217 16219 (8 flits)
Measured flits: 16204 16205 16208 16209 16212 16216 16217 16219 (8 flits)
Class 0:
Remaining flits: 16204 16205 16208 16209 16212 16216 16217 16219 (8 flits)
Measured flits: 16204 16205 16208 16209 16212 16216 16217 16219 (8 flits)
Class 0:
Remaining flits: 16204 16205 16208 16209 16212 16216 16217 16219 (8 flits)
Measured flits: 16204 16205 16208 16209 16212 16216 16217 16219 (8 flits)
Class 0:
Remaining flits: 16204 16205 16208 16209 16212 16216 16217 16219 (8 flits)
Measured flits: 16204 16205 16208 16209 16212 16216 16217 16219 (8 flits)
Class 0:
Remaining flits: 16204 16205 16208 16209 16212 16216 16217 16219 (8 flits)
Measured flits: 16204 16205 16208 16209 16212 16216 16217 16219 (8 flits)
Class 0:
Remaining flits: 16204 16205 16208 16209 16212 16216 16217 16219 (8 flits)
Measured flits: 16204 16205 16208 16209 16212 16216 16217 16219 (8 flits)
Class 0:
Remaining flits: 16204 16205 16208 16209 16212 16216 16217 16219 (8 flits)
Measured flits: 16204 16205 16208 16209 16212 16216 16217 16219 (8 flits)
Class 0:
Remaining flits: 16204 16205 16208 16209 16212 16216 16217 16219 (8 flits)
Measured flits: 16204 16205 16208 16209 16212 16216 16217 16219 (8 flits)
Class 0:
Remaining flits: 16204 16205 16208 16209 16212 16216 16217 16219 (8 flits)
Measured flits: 16204 16205 16208 16209 16212 16216 16217 16219 (8 flits)
Class 0:
Remaining flits: 16204 16205 16208 16209 16212 16216 16217 16219 (8 flits)
Measured flits: 16204 16205 16208 16209 16212 16216 16217 16219 (8 flits)
Class 0:
Remaining flits: 16204 16205 16208 16209 16212 16216 16217 16219 (8 flits)
Measured flits: 16204 16205 16208 16209 16212 16216 16217 16219 (8 flits)
Class 0:
Remaining flits: 16204 16205 16208 16209 16212 16216 16217 16219 (8 flits)
Measured flits: 16204 16205 16208 16209 16212 16216 16217 16219 (8 flits)
Class 0:
Remaining flits: 16204 16205 16208 16209 16212 16216 16217 16219 (8 flits)
Measured flits: 16204 16205 16208 16209 16212 16216 16217 16219 (8 flits)
Class 0:
Remaining flits: 16204 16205 16208 16209 16212 16216 16217 16219 (8 flits)
Measured flits: 16204 16205 16208 16209 16212 16216 16217 16219 (8 flits)
Class 0:
Remaining flits: 16204 16205 16208 16209 16212 16216 16217 16219 (8 flits)
Measured flits: 16204 16205 16208 16209 16212 16216 16217 16219 (8 flits)
Class 0:
Remaining flits: 16204 16205 16208 16209 16212 16216 16217 16219 (8 flits)
Measured flits: 16204 16205 16208 16209 16212 16216 16217 16219 (8 flits)
Class 0:
Remaining flits: 16204 16205 16208 16209 16212 16216 16217 16219 (8 flits)
Measured flits: 16204 16205 16208 16209 16212 16216 16217 16219 (8 flits)
Class 0:
Remaining flits: 16204 16205 16208 16209 16212 16216 16217 16219 (8 flits)
Measured flits: 16204 16205 16208 16209 16212 16216 16217 16219 (8 flits)
Class 0:
Remaining flits: 16204 16205 16208 16209 16212 16216 16217 16219 (8 flits)
Measured flits: 16204 16205 16208 16209 16212 16216 16217 16219 (8 flits)
Class 0:
Remaining flits: 16204 16205 16208 16209 16212 16216 16217 16219 (8 flits)
Measured flits: 16204 16205 16208 16209 16212 16216 16217 16219 (8 flits)
Class 0:
Remaining flits: 16204 16205 16208 16209 16212 16216 16217 16219 (8 flits)
Measured flits: 16204 16205 16208 16209 16212 16216 16217 16219 (8 flits)
Class 0:
Remaining flits: 16204 16205 16208 16209 16212 16216 16217 16219 (8 flits)
Measured flits: 16204 16205 16208 16209 16212 16216 16217 16219 (8 flits)
Class 0:
Remaining flits: 16204 16205 16208 16209 16212 16216 16217 16219 (8 flits)
Measured flits: 16204 16205 16208 16209 16212 16216 16217 16219 (8 flits)
Class 0:
Remaining flits: 16204 16205 16208 16209 16212 16216 16217 16219 (8 flits)
Measured flits: 16204 16205 16208 16209 16212 16216 16217 16219 (8 flits)
Class 0:
Remaining flits: 16204 16205 16208 16209 16212 16216 16217 16219 (8 flits)
Measured flits: 16204 16205 16208 16209 16212 16216 16217 16219 (8 flits)
Class 0:
Remaining flits: 16204 16205 16208 16209 16212 16216 16217 16219 (8 flits)
Measured flits: 16204 16205 16208 16209 16212 16216 16217 16219 (8 flits)
Class 0:
Remaining flits: 16204 16205 16208 16209 16212 16216 16217 16219 (8 flits)
Measured flits: 16204 16205 16208 16209 16212 16216 16217 16219 (8 flits)
Class 0:
Remaining flits: 16204 16205 16208 16209 16212 16216 16217 16219 (8 flits)
Measured flits: 16204 16205 16208 16209 16212 16216 16217 16219 (8 flits)
Class 0:
Remaining flits: 16204 16205 16208 16209 16212 16216 16217 16219 (8 flits)
Measured flits: 16204 16205 16208 16209 16212 16216 16217 16219 (8 flits)
Class 0:
Remaining flits: 16204 16205 16208 16209 16212 16216 16217 16219 (8 flits)
Measured flits: 16204 16205 16208 16209 16212 16216 16217 16219 (8 flits)
Class 0:
Remaining flits: 16204 16205 16208 16209 16212 16216 16217 16219 (8 flits)
Measured flits: 16204 16205 16208 16209 16212 16216 16217 16219 (8 flits)
Class 0:
Remaining flits: 16204 16205 16208 16209 16212 16216 16217 16219 (8 flits)
Measured flits: 16204 16205 16208 16209 16212 16216 16217 16219 (8 flits)
Class 0:
Remaining flits: 16204 16205 16208 16209 16212 16216 16217 16219 (8 flits)
Measured flits: 16204 16205 16208 16209 16212 16216 16217 16219 (8 flits)
Class 0:
Remaining flits: 16204 16205 16208 16209 16212 16216 16217 16219 (8 flits)
Measured flits: 16204 16205 16208 16209 16212 16216 16217 16219 (8 flits)
Class 0:
Remaining flits: 16204 16205 16208 16209 16212 16216 16217 16219 (8 flits)
Measured flits: 16204 16205 16208 16209 16212 16216 16217 16219 (8 flits)
Class 0:
Remaining flits: 16204 16205 16208 16209 16212 16216 16217 16219 (8 flits)
Measured flits: 16204 16205 16208 16209 16212 16216 16217 16219 (8 flits)
Time taken is 7000 cycles
====== Traffic class 0 ======

Total number of flits generated = 16220, changed lanes = 16034
Overall minimum packet latency = 1707 (1 samples)
Overall average packet latency = 2653.14 (1 samples)
Overall maximum packet latency = 3677 (1 samples)
Overall minimum network latency = 97 (1 samples)
Overall average network latency = 128.034 (1 samples)
Overall maximum network latency = 254 (1 samples)
Overall minimum flit latency = 97 (1 samples)
Overall average flit latency = 128.088 (1 samples)
Overall maximum flit latency = 254 (1 samples)
Overall minimum fragmentation = 0 (1 samples)
Overall average fragmentation = 0 (1 samples)
Overall maximum fragmentation = 0 (1 samples)
Overall minimum injected packet rate = 0.166 (1 samples)
Overall average injected packet rate = 0.166375 (1 samples)
Overall maximum injected packet rate = 0.166667 (1 samples)
Overall minimum accepted packet rate = 0.153 (1 samples)
Overall average accepted packet rate = 0.166042 (1 samples)
Overall maximum accepted packet rate = 0.179 (1 samples)
Overall minimum injected flit rate = 0.166 (1 samples)
Overall average injected flit rate = 0.166375 (1 samples)
Overall maximum injected flit rate = 0.166667 (1 samples)
Overall minimum accepted flit rate = 0.153 (1 samples)
Overall average accepted flit rate = 0.166042 (1 samples)
Overall maximum accepted flit rate = 0.179 (1 samples)
Overall average injected packet size = 1 (1 samples)
Overall average accepted packet size = 1 (1 samples)
Overall average hops = 2.9802 (1 samples)
Overall throughput of the network (flits/cycle) = 5.404
Overall throughput of the network (packets/cycle) = 5.404
Total run time 3978.19
