make: Nothing to be done for `all'.
Master: Running timer....
Master: Running SRC....
BEGIN Configuration File: ./examples/bitrev
// Topology

topology = torus;
k = 4;
n = 2;

// Routing
routing_function = dim_order;

// Flow control
num_vcs     = 4;
vc_buf_size = 4;
wait_for_tail_credit = 0;

// Router architecture
vc_allocator = islip;
sw_allocator = islip;
alloc_iters  = 1;

credit_delay   = 1;
routing_delay  = 1;
vc_alloc_delay = 1;
sw_alloc_delay = 1;

input_speedup     = 1;
output_speedup    = 1;
internal_speedup  = 1.0;

vc_busy_when_full = 0;

// Traffic
traffic = uniform;
packet_size = 1;

// Simulation
sim_type = throughput;

injection_rate = 0.33;

END Configuration File: ./examples/bitrev
===== Time: 1000 =====
Class 0:
Minimum packet latency = 10
Average packet latency = 271.3
Maximum packet latency = 591
Minimum network latency = 11
Average network latency = 119.238
Maximum network latency = 182
Slowest packet = 369
Minimum flit latency = 11
Average flit latency = 119.238
Maximum flit latency = 182
Slowest flit = 862
Minimum fragmentation = 0
Average fragmentation = 0
Maximum fragmentation = 0
Minimum injected packet rate = 0.18 (at node 1)
Average injected packet rate = 0.181125
Maximum injected packet rate = 0.182 (at node 8)
Minimum accepted packet rate = 0.138 (at node 14)
Average accepted packet rate = 0.16025
Maximum accepted packet rate = 0.177 (at node 1)
Minimum injected flit rate = 0.18 (at node 1)
Average injected flit rate = 0.181125
Maximum injected flit rate = 0.182 (at node 8)
Minimum accepted flit rate = 0.138 (at node 14)
Average accepted flit rate = 0.16025
Maximum accepted flit rate = 0.177 (at node 1)
Total number of injected packets = 2898
Total number of injected flits = 2898
Average injected packet length = 1
Total number of accepted packets = 2564
Total number of accepted flits = 2564
Average accepted packet length = 1
Total in-flight flits = 349 (0 measured)
===== Time: 2000 =====
Class 0:
Minimum packet latency = 10
Average packet latency = 517.039
Maximum packet latency = 1087
Minimum network latency = 11
Average network latency = 123.845
Maximum network latency = 187
Slowest packet = 369
Minimum flit latency = 11
Average flit latency = 123.845
Maximum flit latency = 187
Slowest flit = 4270
Minimum fragmentation = 0
Average fragmentation = 0
Maximum fragmentation = 0
Minimum injected packet rate = 0.173 (at node 1)
Average injected packet rate = 0.173687
Maximum injected packet rate = 0.174 (at node 3)
Minimum accepted packet rate = 0.1525 (at node 5)
Average accepted packet rate = 0.163188
Maximum accepted packet rate = 0.1785 (at node 2)
Minimum injected flit rate = 0.173 (at node 1)
Average injected flit rate = 0.173687
Maximum injected flit rate = 0.174 (at node 3)
Minimum accepted flit rate = 0.1525 (at node 5)
Average accepted flit rate = 0.163188
Maximum accepted flit rate = 0.1785 (at node 2)
Total number of injected packets = 5558
Total number of injected flits = 5558
Average injected packet length = 1
Total number of accepted packets = 5222
Total number of accepted flits = 5222
Average accepted packet length = 1
Total in-flight flits = 351 (0 measured)
===== Time: 3000 =====
Class 0:
Minimum packet latency = 935
Average packet latency = 1246.14
Maximum packet latency = 1572
Minimum network latency = 98
Average network latency = 127.922
Maximum network latency = 193
Slowest packet = 5230
Minimum flit latency = 98
Average flit latency = 127.922
Maximum flit latency = 193
Slowest flit = 7238
Minimum fragmentation = 0
Average fragmentation = 0
Maximum fragmentation = 0
Minimum injected packet rate = 0.166 (at node 0)
Average injected packet rate = 0.166563
Maximum injected packet rate = 0.167 (at node 1)
Minimum accepted packet rate = 0.145 (at node 4)
Average accepted packet rate = 0.165875
Maximum accepted packet rate = 0.195 (at node 7)
Minimum injected flit rate = 0.166 (at node 0)
Average injected flit rate = 0.166563
Maximum injected flit rate = 0.167 (at node 1)
Minimum accepted flit rate = 0.145 (at node 4)
Average accepted flit rate = 0.165875
Maximum accepted flit rate = 0.195 (at node 7)
Total number of injected packets = 2665
Total number of injected flits = 2665
Average injected packet length = 1
Total number of accepted packets = 2654
Total number of accepted flits = 2654
Average accepted packet length = 1
Total in-flight flits = 358 (0 measured)
===== Time: 4000 =====
Class 0:
Minimum packet latency = 1465
Average packet latency = 1768.23
Maximum packet latency = 2083
Minimum network latency = 96
Average network latency = 128.156
Maximum network latency = 222
Slowest packet = 8244
Minimum flit latency = 96
Average flit latency = 128.514
Maximum flit latency = 222
Slowest flit = 8258
Minimum fragmentation = 0
Average fragmentation = 0
Maximum fragmentation = 0
Minimum injected packet rate = 0.166 (at node 1)
Average injected packet rate = 0.166375
Maximum injected packet rate = 0.167 (at node 0)
Minimum accepted packet rate = 0.143 (at node 5)
Average accepted packet rate = 0.166625
Maximum accepted packet rate = 0.188 (at node 9)
Minimum injected flit rate = 0.166 (at node 1)
Average injected flit rate = 0.166375
Maximum injected flit rate = 0.167 (at node 0)
Minimum accepted flit rate = 0.143 (at node 5)
Average accepted flit rate = 0.166625
Maximum accepted flit rate = 0.188 (at node 9)
Total number of injected packets = 2662
Total number of injected flits = 2662
Average injected packet length = 1
Total number of accepted packets = 2666
Total number of accepted flits = 2666
Average accepted packet length = 1
Total in-flight flits = 356 (356 measured)
===== Time: 5000 =====
Class 0:
Minimum packet latency = 1465
Average packet latency = 2011.33
Maximum packet latency = 2607
Minimum network latency = 96
Average network latency = 128.386
Maximum network latency = 222
Slowest packet = 8244
Minimum flit latency = 96
Average flit latency = 128.55
Maximum flit latency = 222
Slowest flit = 8258
Minimum fragmentation = 0
Average fragmentation = 0
Maximum fragmentation = 0
Minimum injected packet rate = 0.1655 (at node 1)
Average injected packet rate = 0.166281
Maximum injected packet rate = 0.167 (at node 12)
Minimum accepted packet rate = 0.1485 (at node 4)
Average accepted packet rate = 0.166375
Maximum accepted packet rate = 0.182 (at node 8)
Minimum injected flit rate = 0.1655 (at node 1)
Average injected flit rate = 0.166281
Maximum injected flit rate = 0.167 (at node 12)
Minimum accepted flit rate = 0.1485 (at node 4)
Average accepted flit rate = 0.166375
Maximum accepted flit rate = 0.182 (at node 8)
Total number of injected packets = 5321
Total number of injected flits = 5321
Average injected packet length = 1
Total number of accepted packets = 5324
Total number of accepted flits = 5324
Average accepted packet length = 1
Total in-flight flits = 358 (358 measured)
===== Time: 6000 =====
Class 0:
Minimum packet latency = 1465
Average packet latency = 2260.59
Maximum packet latency = 3105
Minimum network latency = 96
Average network latency = 128.606
Maximum network latency = 274
Slowest packet = 8244
Minimum flit latency = 96
Average flit latency = 128.705
Maximum flit latency = 274
Slowest flit = 13328
Minimum fragmentation = 0
Average fragmentation = 0
Maximum fragmentation = 0
Minimum injected packet rate = 0.165667 (at node 1)
Average injected packet rate = 0.166271
Maximum injected packet rate = 0.166667 (at node 8)
Minimum accepted packet rate = 0.148333 (at node 4)
Average accepted packet rate = 0.166375
Maximum accepted packet rate = 0.177333 (at node 8)
Minimum injected flit rate = 0.165667 (at node 1)
Average injected flit rate = 0.166271
Maximum injected flit rate = 0.166667 (at node 8)
Minimum accepted flit rate = 0.148333 (at node 4)
Average accepted flit rate = 0.166375
Maximum accepted flit rate = 0.177333 (at node 8)
Total number of injected packets = 7981
Total number of injected flits = 7981
Average injected packet length = 1
Total number of accepted packets = 7986
Total number of accepted flits = 7986
Average accepted packet length = 1
Total in-flight flits = 357 (357 measured)
Draining remaining packets ...
Class 0:
Remaining flits: 15792 15818 15834 15845 15846 15853 15859 15861 15863 15864 [...] (328 flits)
Measured flits: 15792 15818 15834 15845 15846 15853 15859 15861 15863 15864 [...] (328 flits)
Class 0:
Remaining flits: 15846 15863 15872 15873 15878 15881 15890 15893 15894 15896 [...] (305 flits)
Measured flits: 15846 15863 15872 15873 15878 15881 15890 15893 15894 15896 [...] (305 flits)
Class 0:
Remaining flits: 15863 15872 15878 15881 15890 15893 15896 15898 15921 15925 [...] (276 flits)
Measured flits: 15863 15872 15878 15881 15890 15893 15896 15898 15921 15925 [...] (276 flits)
Class 0:
Remaining flits: 15872 15878 15896 15921 15928 15941 15944 15946 15948 15951 [...] (243 flits)
Measured flits: 15872 15878 15896 15921 15928 15941 15944 15946 15948 15951 [...] (243 flits)
Class 0:
Remaining flits: 15878 15941 15953 15954 15968 15969 15972 15973 15976 15977 [...] (221 flits)
Measured flits: 15878 15941 15953 15954 15968 15969 15972 15973 15976 15977 [...] (221 flits)
Class 0:
Remaining flits: 15969 15972 15976 15986 16000 16001 16002 16007 16009 16010 [...] (196 flits)
Measured flits: 15969 15972 15976 15986 16000 16001 16002 16007 16009 16010 [...] (196 flits)
Class 0:
Remaining flits: 15972 16000 16007 16012 16013 16014 16019 16025 16026 16029 [...] (170 flits)
Measured flits: 15972 16000 16007 16012 16013 16014 16019 16025 16026 16029 [...] (170 flits)
Class 0:
Remaining flits: 16007 16012 16026 16036 16047 16052 16053 16057 16061 16062 [...] (148 flits)
Measured flits: 16007 16012 16026 16036 16047 16052 16053 16057 16061 16062 [...] (148 flits)
Class 0:
Remaining flits: 16036 16047 16057 16065 16070 16073 16075 16079 16080 16081 [...] (116 flits)
Measured flits: 16036 16047 16057 16065 16070 16073 16075 16079 16080 16081 [...] (116 flits)
Class 0:
Remaining flits: 16057 16079 16080 16096 16100 16106 16109 16110 16113 16115 [...] (87 flits)
Measured flits: 16057 16079 16080 16096 16100 16106 16109 16110 16113 16115 [...] (87 flits)
Class 0:
Remaining flits: 16113 16117 16127 16129 16133 16138 16139 16140 16146 16147 [...] (58 flits)
Measured flits: 16113 16117 16127 16129 16133 16138 16139 16140 16146 16147 [...] (58 flits)
Class 0:
Remaining flits: 16129 16138 16152 16159 16161 16162 16163 16164 16173 16175 [...] (33 flits)
Measured flits: 16129 16138 16152 16159 16161 16162 16163 16164 16173 16175 [...] (33 flits)
Class 0:
Remaining flits: 16129 16138 16173 16175 16184 16188 16196 16198 16203 16204 [...] (20 flits)
Measured flits: 16129 16138 16173 16175 16184 16188 16196 16198 16203 16204 [...] (20 flits)
Class 0:
Remaining flits: 16138 16175 16196 16203 16205 16207 16209 16210 16211 16213 [...] (13 flits)
Measured flits: 16138 16175 16196 16203 16205 16207 16209 16210 16211 16213 [...] (13 flits)
Class 0:
Remaining flits: 16138 16203 16205 16207 16209 16210 16213 16215 16216 16218 (10 flits)
Measured flits: 16138 16203 16205 16207 16209 16210 16213 16215 16216 16218 (10 flits)
Class 0:
Remaining flits: 16138 16203 16205 16207 16209 16210 16213 16215 16216 16218 (10 flits)
Measured flits: 16138 16203 16205 16207 16209 16210 16213 16215 16216 16218 (10 flits)
Class 0:
Remaining flits: 16138 16203 16205 16207 16209 16210 16213 16215 16216 16218 (10 flits)
Measured flits: 16138 16203 16205 16207 16209 16210 16213 16215 16216 16218 (10 flits)
Class 0:
Remaining flits: 16138 16203 16205 16207 16209 16210 16213 16215 16216 16218 (10 flits)
Measured flits: 16138 16203 16205 16207 16209 16210 16213 16215 16216 16218 (10 flits)
Class 0:
Remaining flits: 16138 16203 16205 16207 16209 16210 16213 16215 16216 16218 (10 flits)
Measured flits: 16138 16203 16205 16207 16209 16210 16213 16215 16216 16218 (10 flits)
Class 0:
Remaining flits: 16138 16203 16205 16207 16209 16210 16213 16215 16216 16218 (10 flits)
Measured flits: 16138 16203 16205 16207 16209 16210 16213 16215 16216 16218 (10 flits)
Class 0:
Remaining flits: 16138 16203 16205 16207 16209 16210 16213 16215 16216 16218 (10 flits)
Measured flits: 16138 16203 16205 16207 16209 16210 16213 16215 16216 16218 (10 flits)
Class 0:
Remaining flits: 16138 16203 16205 16207 16209 16210 16213 16215 16216 16218 (10 flits)
Measured flits: 16138 16203 16205 16207 16209 16210 16213 16215 16216 16218 (10 flits)
Class 0:
Remaining flits: 16138 16203 16205 16207 16209 16210 16213 16215 16216 16218 (10 flits)
Measured flits: 16138 16203 16205 16207 16209 16210 16213 16215 16216 16218 (10 flits)
Class 0:
Remaining flits: 16138 16203 16205 16207 16209 16210 16213 16215 16216 16218 (10 flits)
Measured flits: 16138 16203 16205 16207 16209 16210 16213 16215 16216 16218 (10 flits)
Class 0:
Remaining flits: 16138 16203 16205 16207 16209 16210 16213 16215 16216 16218 (10 flits)
Measured flits: 16138 16203 16205 16207 16209 16210 16213 16215 16216 16218 (10 flits)
Class 0:
Remaining flits: 16138 16203 16205 16207 16209 16210 16213 16215 16216 16218 (10 flits)
Measured flits: 16138 16203 16205 16207 16209 16210 16213 16215 16216 16218 (10 flits)
Class 0:
Remaining flits: 16138 16203 16205 16207 16209 16210 16213 16215 16216 16218 (10 flits)
Measured flits: 16138 16203 16205 16207 16209 16210 16213 16215 16216 16218 (10 flits)
Class 0:
Remaining flits: 16138 16203 16205 16207 16209 16210 16213 16215 16216 16218 (10 flits)
Measured flits: 16138 16203 16205 16207 16209 16210 16213 16215 16216 16218 (10 flits)
Class 0:
Remaining flits: 16138 16203 16205 16207 16209 16210 16213 16215 16216 16218 (10 flits)
Measured flits: 16138 16203 16205 16207 16209 16210 16213 16215 16216 16218 (10 flits)
Class 0:
Remaining flits: 16138 16203 16205 16207 16209 16210 16213 16215 16216 16218 (10 flits)
Measured flits: 16138 16203 16205 16207 16209 16210 16213 16215 16216 16218 (10 flits)
Class 0:
Remaining flits: 16138 16203 16205 16207 16209 16210 16213 16215 16216 16218 (10 flits)
Measured flits: 16138 16203 16205 16207 16209 16210 16213 16215 16216 16218 (10 flits)
Class 0:
Remaining flits: 16138 16203 16205 16207 16209 16210 16213 16215 16216 16218 (10 flits)
Measured flits: 16138 16203 16205 16207 16209 16210 16213 16215 16216 16218 (10 flits)
Class 0:
Remaining flits: 16138 16203 16205 16207 16209 16210 16213 16215 16216 16218 (10 flits)
Measured flits: 16138 16203 16205 16207 16209 16210 16213 16215 16216 16218 (10 flits)
Class 0:
Remaining flits: 16138 16203 16205 16207 16209 16210 16213 16215 16216 16218 (10 flits)
Measured flits: 16138 16203 16205 16207 16209 16210 16213 16215 16216 16218 (10 flits)
Class 0:
Remaining flits: 16138 16203 16205 16207 16209 16210 16213 16215 16216 16218 (10 flits)
Measured flits: 16138 16203 16205 16207 16209 16210 16213 16215 16216 16218 (10 flits)
Class 0:
Remaining flits: 16138 16203 16205 16207 16209 16210 16213 16215 16216 16218 (10 flits)
Measured flits: 16138 16203 16205 16207 16209 16210 16213 16215 16216 16218 (10 flits)
Class 0:
Remaining flits: 16138 16203 16205 16207 16209 16210 16213 16215 16216 16218 (10 flits)
Measured flits: 16138 16203 16205 16207 16209 16210 16213 16215 16216 16218 (10 flits)
Class 0:
Remaining flits: 16138 16203 16205 16207 16209 16210 16213 16215 16216 16218 (10 flits)
Measured flits: 16138 16203 16205 16207 16209 16210 16213 16215 16216 16218 (10 flits)
Class 0:
Remaining flits: 16138 16203 16205 16207 16209 16210 16213 16215 16216 16218 (10 flits)
Measured flits: 16138 16203 16205 16207 16209 16210 16213 16215 16216 16218 (10 flits)
Class 0:
Remaining flits: 16138 16203 16205 16207 16209 16210 16213 16215 16216 16218 (10 flits)
Measured flits: 16138 16203 16205 16207 16209 16210 16213 16215 16216 16218 (10 flits)
Class 0:
Remaining flits: 16138 16203 16205 16207 16209 16210 16213 16215 16216 16218 (10 flits)
Measured flits: 16138 16203 16205 16207 16209 16210 16213 16215 16216 16218 (10 flits)
Class 0:
Remaining flits: 16138 16203 16205 16207 16209 16210 16213 16215 16216 16218 (10 flits)
Measured flits: 16138 16203 16205 16207 16209 16210 16213 16215 16216 16218 (10 flits)
Class 0:
Remaining flits: 16138 16203 16205 16207 16209 16210 16213 16215 16216 16218 (10 flits)
Measured flits: 16138 16203 16205 16207 16209 16210 16213 16215 16216 16218 (10 flits)
Class 0:
Remaining flits: 16138 16203 16205 16207 16209 16210 16213 16215 16216 16218 (10 flits)
Measured flits: 16138 16203 16205 16207 16209 16210 16213 16215 16216 16218 (10 flits)
Class 0:
Remaining flits: 16138 16203 16205 16207 16209 16210 16213 16215 16216 16218 (10 flits)
Measured flits: 16138 16203 16205 16207 16209 16210 16213 16215 16216 16218 (10 flits)
Class 0:
Remaining flits: 16138 16203 16205 16207 16209 16210 16213 16215 16216 16218 (10 flits)
Measured flits: 16138 16203 16205 16207 16209 16210 16213 16215 16216 16218 (10 flits)
Class 0:
Remaining flits: 16138 16203 16205 16207 16209 16210 16213 16215 16216 16218 (10 flits)
Measured flits: 16138 16203 16205 16207 16209 16210 16213 16215 16216 16218 (10 flits)
Class 0:
Remaining flits: 16138 16203 16205 16207 16209 16210 16213 16215 16216 16218 (10 flits)
Measured flits: 16138 16203 16205 16207 16209 16210 16213 16215 16216 16218 (10 flits)
Class 0:
Remaining flits: 16138 16203 16205 16207 16209 16210 16213 16215 16216 16218 (10 flits)
Measured flits: 16138 16203 16205 16207 16209 16210 16213 16215 16216 16218 (10 flits)
Class 0:
Remaining flits: 16138 16203 16205 16207 16209 16210 16213 16215 16216 16218 (10 flits)
Measured flits: 16138 16203 16205 16207 16209 16210 16213 16215 16216 16218 (10 flits)
Class 0:
Remaining flits: 16138 16203 16205 16207 16209 16210 16213 16215 16216 16218 (10 flits)
Measured flits: 16138 16203 16205 16207 16209 16210 16213 16215 16216 16218 (10 flits)
Class 0:
Remaining flits: 16138 16203 16205 16207 16209 16210 16213 16215 16216 16218 (10 flits)
Measured flits: 16138 16203 16205 16207 16209 16210 16213 16215 16216 16218 (10 flits)
Class 0:
Remaining flits: 16138 16203 16205 16207 16209 16210 16213 16215 16216 16218 (10 flits)
Measured flits: 16138 16203 16205 16207 16209 16210 16213 16215 16216 16218 (10 flits)
Class 0:
Remaining flits: 16138 16203 16205 16207 16209 16210 16213 16215 16216 16218 (10 flits)
Measured flits: 16138 16203 16205 16207 16209 16210 16213 16215 16216 16218 (10 flits)
Class 0:
Remaining flits: 16138 16203 16205 16207 16209 16210 16213 16215 16216 16218 (10 flits)
Measured flits: 16138 16203 16205 16207 16209 16210 16213 16215 16216 16218 (10 flits)
Class 0:
Remaining flits: 16138 16203 16205 16207 16209 16210 16213 16215 16216 16218 (10 flits)
Measured flits: 16138 16203 16205 16207 16209 16210 16213 16215 16216 16218 (10 flits)
Class 0:
Remaining flits: 16138 16203 16205 16207 16209 16210 16213 16215 16216 16218 (10 flits)
Measured flits: 16138 16203 16205 16207 16209 16210 16213 16215 16216 16218 (10 flits)
Class 0:
Remaining flits: 16138 16203 16205 16207 16209 16210 16213 16215 16216 16218 (10 flits)
Measured flits: 16138 16203 16205 16207 16209 16210 16213 16215 16216 16218 (10 flits)
Class 0:
Remaining flits: 16138 16203 16205 16207 16209 16210 16213 16215 16216 16218 (10 flits)
Measured flits: 16138 16203 16205 16207 16209 16210 16213 16215 16216 16218 (10 flits)
Class 0:
Remaining flits: 16138 16203 16205 16207 16209 16210 16213 16215 16216 16218 (10 flits)
Measured flits: 16138 16203 16205 16207 16209 16210 16213 16215 16216 16218 (10 flits)
Class 0:
Remaining flits: 16138 16203 16205 16207 16209 16210 16213 16215 16216 16218 (10 flits)
Measured flits: 16138 16203 16205 16207 16209 16210 16213 16215 16216 16218 (10 flits)
Class 0:
Remaining flits: 16138 16203 16205 16207 16209 16210 16213 16215 16216 16218 (10 flits)
Measured flits: 16138 16203 16205 16207 16209 16210 16213 16215 16216 16218 (10 flits)
Class 0:
Remaining flits: 16138 16203 16205 16207 16209 16210 16213 16215 16216 16218 (10 flits)
Measured flits: 16138 16203 16205 16207 16209 16210 16213 16215 16216 16218 (10 flits)
Class 0:
Remaining flits: 16138 16203 16205 16207 16209 16210 16213 16215 16216 16218 (10 flits)
Measured flits: 16138 16203 16205 16207 16209 16210 16213 16215 16216 16218 (10 flits)
Class 0:
Remaining flits: 16138 16203 16205 16207 16209 16210 16213 16215 16216 16218 (10 flits)
Measured flits: 16138 16203 16205 16207 16209 16210 16213 16215 16216 16218 (10 flits)
Class 0:
Remaining flits: 16138 16203 16205 16207 16209 16210 16213 16215 16216 16218 (10 flits)
Measured flits: 16138 16203 16205 16207 16209 16210 16213 16215 16216 16218 (10 flits)
Class 0:
Remaining flits: 16138 16203 16205 16207 16209 16210 16213 16215 16216 16218 (10 flits)
Measured flits: 16138 16203 16205 16207 16209 16210 16213 16215 16216 16218 (10 flits)
Class 0:
Remaining flits: 16138 16203 16205 16207 16209 16210 16213 16215 16216 16218 (10 flits)
Measured flits: 16138 16203 16205 16207 16209 16210 16213 16215 16216 16218 (10 flits)
Class 0:
Remaining flits: 16138 16203 16205 16207 16209 16210 16213 16215 16216 16218 (10 flits)
Measured flits: 16138 16203 16205 16207 16209 16210 16213 16215 16216 16218 (10 flits)
Class 0:
Remaining flits: 16138 16203 16205 16207 16209 16210 16213 16215 16216 16218 (10 flits)
Measured flits: 16138 16203 16205 16207 16209 16210 16213 16215 16216 16218 (10 flits)
Class 0:
Remaining flits: 16138 16203 16205 16207 16209 16210 16213 16215 16216 16218 (10 flits)
Measured flits: 16138 16203 16205 16207 16209 16210 16213 16215 16216 16218 (10 flits)
Class 0:
Remaining flits: 16138 16203 16205 16207 16209 16210 16213 16215 16216 16218 (10 flits)
Measured flits: 16138 16203 16205 16207 16209 16210 16213 16215 16216 16218 (10 flits)
Class 0:
Remaining flits: 16138 16203 16205 16207 16209 16210 16213 16215 16216 16218 (10 flits)
Measured flits: 16138 16203 16205 16207 16209 16210 16213 16215 16216 16218 (10 flits)
Class 0:
Remaining flits: 16138 16203 16205 16207 16209 16210 16213 16215 16216 16218 (10 flits)
Measured flits: 16138 16203 16205 16207 16209 16210 16213 16215 16216 16218 (10 flits)
Class 0:
Remaining flits: 16138 16203 16205 16207 16209 16210 16213 16215 16216 16218 (10 flits)
Measured flits: 16138 16203 16205 16207 16209 16210 16213 16215 16216 16218 (10 flits)
Class 0:
Remaining flits: 16138 16203 16205 16207 16209 16210 16213 16215 16216 16218 (10 flits)
Measured flits: 16138 16203 16205 16207 16209 16210 16213 16215 16216 16218 (10 flits)
Class 0:
Remaining flits: 16138 16203 16205 16207 16209 16210 16213 16215 16216 16218 (10 flits)
Measured flits: 16138 16203 16205 16207 16209 16210 16213 16215 16216 16218 (10 flits)
Class 0:
Remaining flits: 16138 16203 16205 16207 16209 16210 16213 16215 16216 16218 (10 flits)
Measured flits: 16138 16203 16205 16207 16209 16210 16213 16215 16216 16218 (10 flits)
Class 0:
Remaining flits: 16138 16203 16205 16207 16209 16210 16213 16215 16216 16218 (10 flits)
Measured flits: 16138 16203 16205 16207 16209 16210 16213 16215 16216 16218 (10 flits)
Class 0:
Remaining flits: 16138 16203 16205 16207 16209 16210 16213 16215 16216 16218 (10 flits)
Measured flits: 16138 16203 16205 16207 16209 16210 16213 16215 16216 16218 (10 flits)
Class 0:
Remaining flits: 16138 16203 16205 16207 16209 16210 16213 16215 16216 16218 (10 flits)
Measured flits: 16138 16203 16205 16207 16209 16210 16213 16215 16216 16218 (10 flits)
Class 0:
Remaining flits: 16138 16203 16205 16207 16209 16210 16213 16215 16216 16218 (10 flits)
Measured flits: 16138 16203 16205 16207 16209 16210 16213 16215 16216 16218 (10 flits)
Class 0:
Remaining flits: 16138 16203 16205 16207 16209 16210 16213 16215 16216 16218 (10 flits)
Measured flits: 16138 16203 16205 16207 16209 16210 16213 16215 16216 16218 (10 flits)
Class 0:
Remaining flits: 16138 16203 16205 16207 16209 16210 16213 16215 16216 16218 (10 flits)
Measured flits: 16138 16203 16205 16207 16209 16210 16213 16215 16216 16218 (10 flits)
Class 0:
Remaining flits: 16138 16203 16205 16207 16209 16210 16213 16215 16216 16218 (10 flits)
Measured flits: 16138 16203 16205 16207 16209 16210 16213 16215 16216 16218 (10 flits)
Class 0:
Remaining flits: 16138 16203 16205 16207 16209 16210 16213 16215 16216 16218 (10 flits)
Measured flits: 16138 16203 16205 16207 16209 16210 16213 16215 16216 16218 (10 flits)
Class 0:
Remaining flits: 16138 16203 16205 16207 16209 16210 16213 16215 16216 16218 (10 flits)
Measured flits: 16138 16203 16205 16207 16209 16210 16213 16215 16216 16218 (10 flits)
Class 0:
Remaining flits: 16138 16203 16205 16207 16209 16210 16213 16215 16216 16218 (10 flits)
Measured flits: 16138 16203 16205 16207 16209 16210 16213 16215 16216 16218 (10 flits)
Class 0:
Remaining flits: 16138 16203 16205 16207 16209 16210 16213 16215 16216 16218 (10 flits)
Measured flits: 16138 16203 16205 16207 16209 16210 16213 16215 16216 16218 (10 flits)
Class 0:
Remaining flits: 16138 16203 16205 16207 16209 16210 16213 16215 16216 16218 (10 flits)
Measured flits: 16138 16203 16205 16207 16209 16210 16213 16215 16216 16218 (10 flits)
Class 0:
Remaining flits: 16138 16203 16205 16207 16209 16210 16213 16215 16216 16218 (10 flits)
Measured flits: 16138 16203 16205 16207 16209 16210 16213 16215 16216 16218 (10 flits)
Class 0:
Remaining flits: 16138 16203 16205 16207 16209 16210 16213 16215 16216 16218 (10 flits)
Measured flits: 16138 16203 16205 16207 16209 16210 16213 16215 16216 16218 (10 flits)
Class 0:
Remaining flits: 16138 16203 16205 16207 16209 16210 16213 16215 16216 16218 (10 flits)
Measured flits: 16138 16203 16205 16207 16209 16210 16213 16215 16216 16218 (10 flits)
Class 0:
Remaining flits: 16138 16203 16205 16207 16209 16210 16213 16215 16216 16218 (10 flits)
Measured flits: 16138 16203 16205 16207 16209 16210 16213 16215 16216 16218 (10 flits)
Class 0:
Remaining flits: 16138 16203 16205 16207 16209 16210 16213 16215 16216 16218 (10 flits)
Measured flits: 16138 16203 16205 16207 16209 16210 16213 16215 16216 16218 (10 flits)
Class 0:
Remaining flits: 16138 16203 16205 16207 16209 16210 16213 16215 16216 16218 (10 flits)
Measured flits: 16138 16203 16205 16207 16209 16210 16213 16215 16216 16218 (10 flits)
Class 0:
Remaining flits: 16138 16203 16205 16207 16209 16210 16213 16215 16216 16218 (10 flits)
Measured flits: 16138 16203 16205 16207 16209 16210 16213 16215 16216 16218 (10 flits)
Class 0:
Remaining flits: 16138 16203 16205 16207 16209 16210 16213 16215 16216 16218 (10 flits)
Measured flits: 16138 16203 16205 16207 16209 16210 16213 16215 16216 16218 (10 flits)
Class 0:
Remaining flits: 16138 16203 16205 16207 16209 16210 16213 16215 16216 16218 (10 flits)
Measured flits: 16138 16203 16205 16207 16209 16210 16213 16215 16216 16218 (10 flits)
Class 0:
Remaining flits: 16138 16203 16205 16207 16209 16210 16213 16215 16216 16218 (10 flits)
Measured flits: 16138 16203 16205 16207 16209 16210 16213 16215 16216 16218 (10 flits)
Class 0:
Remaining flits: 16138 16203 16205 16207 16209 16210 16213 16215 16216 16218 (10 flits)
Measured flits: 16138 16203 16205 16207 16209 16210 16213 16215 16216 16218 (10 flits)
Time taken is 7000 cycles
====== Traffic class 0 ======

Total number of flits generated = 16219, changed lanes = 16040
Overall minimum packet latency = 1465 (1 samples)
Overall average packet latency = 2293.22 (1 samples)
Overall maximum packet latency = 3167 (1 samples)
Overall minimum network latency = 96 (1 samples)
Overall average network latency = 128.627 (1 samples)
Overall maximum network latency = 274 (1 samples)
Overall minimum flit latency = 96 (1 samples)
Overall average flit latency = 128.722 (1 samples)
Overall maximum flit latency = 274 (1 samples)
Overall minimum fragmentation = 0 (1 samples)
Overall average fragmentation = 0 (1 samples)
Overall maximum fragmentation = 0 (1 samples)
Overall minimum injected packet rate = 0.165667 (1 samples)
Overall average injected packet rate = 0.166271 (1 samples)
Overall maximum injected packet rate = 0.166667 (1 samples)
Overall minimum accepted packet rate = 0.148333 (1 samples)
Overall average accepted packet rate = 0.166375 (1 samples)
Overall maximum accepted packet rate = 0.177333 (1 samples)
Overall minimum injected flit rate = 0.165667 (1 samples)
Overall average injected flit rate = 0.166271 (1 samples)
Overall maximum injected flit rate = 0.166667 (1 samples)
Overall minimum accepted flit rate = 0.148333 (1 samples)
Overall average accepted flit rate = 0.166375 (1 samples)
Overall maximum accepted flit rate = 0.177333 (1 samples)
Overall average injected packet size = 1 (1 samples)
Overall average accepted packet size = 1 (1 samples)
Overall average hops = 3.01141 (1 samples)
Overall throughput of the network (flits/cycle) = 5.403
Overall throughput of the network (packets/cycle) = 5.403
Total run time 4177.72
