make: Nothing to be done for `all'.
Master: Running timer....
Master: Running SRC....
BEGIN Configuration File: ./examples/bitrev
// Topology

topology = torus;
k = 4;
n = 2;

// Routing
routing_function = dim_order;

// Flow control
num_vcs     = 4;
vc_buf_size = 4;
wait_for_tail_credit = 0;

// Router architecture
vc_allocator = islip;
sw_allocator = islip;
alloc_iters  = 1;

credit_delay   = 1;
routing_delay  = 1;
vc_alloc_delay = 1;
sw_alloc_delay = 1;

input_speedup     = 1;
output_speedup    = 1;
internal_speedup  = 1.0;

vc_busy_when_full = 0;

// Traffic
traffic = uniform;
packet_size = 1;

// Simulation
sim_type = throughput;

injection_rate = 0.21;

END Configuration File: ./examples/bitrev
===== Time: 1000 =====
Class 0:
Minimum packet latency = 9
Average packet latency = 123.946
Maximum packet latency = 321
Minimum network latency = 10
Average network latency = 100.207
Maximum network latency = 206
Slowest packet = 816
Minimum flit latency = 10
Average flit latency = 100.207
Maximum flit latency = 206
Slowest flit = 2063
Minimum fragmentation = 0
Average fragmentation = 0
Maximum fragmentation = 0
Minimum injected packet rate = 0.175 (at node 0)
Average injected packet rate = 0.17925
Maximum injected packet rate = 0.182 (at node 6)
Minimum accepted packet rate = 0.145 (at node 14)
Average accepted packet rate = 0.158188
Maximum accepted packet rate = 0.173 (at node 1)
Minimum injected flit rate = 0.175 (at node 0)
Average injected flit rate = 0.17925
Maximum injected flit rate = 0.182 (at node 6)
Minimum accepted flit rate = 0.145 (at node 14)
Average accepted flit rate = 0.158188
Maximum accepted flit rate = 0.173 (at node 1)
Total number of injected packets = 2868
Total number of injected flits = 2868
Average injected packet length = 1
Total number of accepted packets = 2531
Total number of accepted flits = 2531
Average accepted packet length = 1
Total in-flight flits = 349 (0 measured)
===== Time: 2000 =====
Class 0:
Minimum packet latency = 9
Average packet latency = 220.564
Maximum packet latency = 593
Minimum network latency = 10
Average network latency = 114.498
Maximum network latency = 206
Slowest packet = 816
Minimum flit latency = 10
Average flit latency = 114.498
Maximum flit latency = 206
Slowest flit = 2063
Minimum fragmentation = 0
Average fragmentation = 0
Maximum fragmentation = 0
Minimum injected packet rate = 0.171 (at node 0)
Average injected packet rate = 0.172875
Maximum injected packet rate = 0.1745 (at node 13)
Minimum accepted packet rate = 0.147 (at node 4)
Average accepted packet rate = 0.161844
Maximum accepted packet rate = 0.171 (at node 8)
Minimum injected flit rate = 0.171 (at node 0)
Average injected flit rate = 0.172875
Maximum injected flit rate = 0.1745 (at node 13)
Minimum accepted flit rate = 0.147 (at node 4)
Average accepted flit rate = 0.161844
Maximum accepted flit rate = 0.171 (at node 8)
Total number of injected packets = 5532
Total number of injected flits = 5532
Average injected packet length = 1
Total number of accepted packets = 5179
Total number of accepted flits = 5179
Average accepted packet length = 1
Total in-flight flits = 368 (0 measured)
===== Time: 3000 =====
Class 0:
Minimum packet latency = 241
Average packet latency = 505.442
Maximum packet latency = 748
Minimum network latency = 98
Average network latency = 127.975
Maximum network latency = 188
Slowest packet = 5155
Minimum flit latency = 98
Average flit latency = 127.975
Maximum flit latency = 188
Slowest flit = 6063
Minimum fragmentation = 0
Average fragmentation = 0
Maximum fragmentation = 0
Minimum injected packet rate = 0.166 (at node 0)
Average injected packet rate = 0.166563
Maximum injected packet rate = 0.168 (at node 12)
Minimum accepted packet rate = 0.152 (at node 2)
Average accepted packet rate = 0.167125
Maximum accepted packet rate = 0.183 (at node 11)
Minimum injected flit rate = 0.166 (at node 0)
Average injected flit rate = 0.166563
Maximum injected flit rate = 0.168 (at node 12)
Minimum accepted flit rate = 0.152 (at node 2)
Average accepted flit rate = 0.167125
Maximum accepted flit rate = 0.183 (at node 11)
Total number of injected packets = 2665
Total number of injected flits = 2665
Average injected packet length = 1
Total number of accepted packets = 2674
Total number of accepted flits = 2674
Average accepted packet length = 1
Total in-flight flits = 357 (0 measured)
===== Time: 4000 =====
Class 0:
Minimum packet latency = 434
Average packet latency = 722.801
Maximum packet latency = 1053
Minimum network latency = 98
Average network latency = 127.671
Maximum network latency = 183
Slowest packet = 8216
Minimum flit latency = 98
Average flit latency = 127.809
Maximum flit latency = 185
Slowest flit = 7782
Minimum fragmentation = 0
Average fragmentation = 0
Maximum fragmentation = 0
Minimum injected packet rate = 0.165 (at node 4)
Average injected packet rate = 0.166375
Maximum injected packet rate = 0.167 (at node 2)
Minimum accepted packet rate = 0.141 (at node 5)
Average accepted packet rate = 0.1665
Maximum accepted packet rate = 0.189 (at node 11)
Minimum injected flit rate = 0.165 (at node 4)
Average injected flit rate = 0.166375
Maximum injected flit rate = 0.167 (at node 2)
Minimum accepted flit rate = 0.141 (at node 5)
Average accepted flit rate = 0.1665
Maximum accepted flit rate = 0.189 (at node 11)
Total number of injected packets = 2662
Total number of injected flits = 2662
Average injected packet length = 1
Total number of accepted packets = 2664
Total number of accepted flits = 2664
Average accepted packet length = 1
Total in-flight flits = 357 (357 measured)
===== Time: 5000 =====
Class 0:
Minimum packet latency = 434
Average packet latency = 830.322
Maximum packet latency = 1250
Minimum network latency = 98
Average network latency = 128.613
Maximum network latency = 262
Slowest packet = 8216
Minimum flit latency = 98
Average flit latency = 128.619
Maximum flit latency = 262
Slowest flit = 12036
Minimum fragmentation = 0
Average fragmentation = 0
Maximum fragmentation = 0
Minimum injected packet rate = 0.1615 (at node 0)
Average injected packet rate = 0.165969
Maximum injected packet rate = 0.167 (at node 5)
Minimum accepted packet rate = 0.144 (at node 4)
Average accepted packet rate = 0.166063
Maximum accepted packet rate = 0.1825 (at node 9)
Minimum injected flit rate = 0.1615 (at node 0)
Average injected flit rate = 0.165969
Maximum injected flit rate = 0.167 (at node 5)
Minimum accepted flit rate = 0.144 (at node 4)
Average accepted flit rate = 0.166063
Maximum accepted flit rate = 0.1825 (at node 9)
Total number of injected packets = 5311
Total number of injected flits = 5311
Average injected packet length = 1
Total number of accepted packets = 5314
Total number of accepted flits = 5314
Average accepted packet length = 1
Total in-flight flits = 354 (354 measured)
===== Time: 6000 =====
Class 0:
Minimum packet latency = 434
Average packet latency = 930.504
Maximum packet latency = 1485
Minimum network latency = 98
Average network latency = 128.256
Maximum network latency = 262
Slowest packet = 8216
Minimum flit latency = 98
Average flit latency = 128.276
Maximum flit latency = 262
Slowest flit = 12036
Minimum fragmentation = 0
Average fragmentation = 0
Maximum fragmentation = 0
Minimum injected packet rate = 0.163 (at node 0)
Average injected packet rate = 0.166167
Maximum injected packet rate = 0.167 (at node 5)
Minimum accepted packet rate = 0.145667 (at node 4)
Average accepted packet rate = 0.166146
Maximum accepted packet rate = 0.179667 (at node 9)
Minimum injected flit rate = 0.163 (at node 0)
Average injected flit rate = 0.166167
Maximum injected flit rate = 0.167 (at node 5)
Minimum accepted flit rate = 0.145667 (at node 4)
Average accepted flit rate = 0.166146
Maximum accepted flit rate = 0.179667 (at node 9)
Total number of injected packets = 7976
Total number of injected flits = 7976
Average injected packet length = 1
Total number of accepted packets = 7975
Total number of accepted flits = 7975
Average accepted packet length = 1
Total in-flight flits = 358 (358 measured)
Draining remaining packets ...
Class 0:
Remaining flits: 15795 15804 15810 15819 15820 15822 15824 15825 15829 15834 [...] (333 flits)
Measured flits: 15795 15804 15810 15819 15820 15822 15824 15825 15829 15834 [...] (333 flits)
Class 0:
Remaining flits: 15845 15851 15859 15860 15861 15863 15867 15868 15869 15872 [...] (304 flits)
Measured flits: 15845 15851 15859 15860 15861 15863 15867 15868 15869 15872 [...] (304 flits)
Class 0:
Remaining flits: 15845 15860 15861 15867 15868 15873 15878 15884 15889 15893 [...] (281 flits)
Measured flits: 15845 15860 15861 15867 15868 15873 15878 15884 15889 15893 [...] (281 flits)
Class 0:
Remaining flits: 15867 15873 15884 15894 15895 15896 15900 15907 15909 15912 [...] (251 flits)
Measured flits: 15867 15873 15884 15894 15895 15896 15900 15907 15909 15912 [...] (251 flits)
Class 0:
Remaining flits: 15884 15907 15909 15915 15918 15920 15923 15938 15945 15947 [...] (225 flits)
Measured flits: 15884 15907 15909 15915 15918 15920 15923 15938 15945 15947 [...] (225 flits)
Class 0:
Remaining flits: 15907 15923 15945 15947 15956 15966 15967 15969 15970 15971 [...] (196 flits)
Measured flits: 15907 15923 15945 15947 15956 15966 15967 15969 15970 15971 [...] (196 flits)
Class 0:
Remaining flits: 15907 15923 15945 15956 15967 15970 15977 15996 16000 16004 [...] (173 flits)
Measured flits: 15907 15923 15945 15956 15967 15970 15977 15996 16000 16004 [...] (173 flits)
Class 0:
Remaining flits: 15907 15923 15977 16000 16005 16008 16009 16014 16020 16023 [...] (150 flits)
Measured flits: 15907 15923 15977 16000 16005 16008 16009 16014 16020 16023 [...] (150 flits)
Class 0:
Remaining flits: 15923 16014 16020 16023 16032 16036 16037 16046 16050 16057 [...] (112 flits)
Measured flits: 15923 16014 16020 16023 16032 16036 16037 16046 16050 16057 [...] (112 flits)
Class 0:
Remaining flits: 15923 16014 16036 16037 16062 16067 16068 16069 16070 16076 [...] (88 flits)
Measured flits: 15923 16014 16036 16037 16062 16067 16068 16069 16070 16076 [...] (88 flits)
Class 0:
Remaining flits: 16062 16067 16070 16076 16078 16080 16081 16082 16086 16087 [...] (67 flits)
Measured flits: 16062 16067 16070 16076 16078 16080 16081 16082 16086 16087 [...] (67 flits)
Class 0:
Remaining flits: 16062 16067 16070 16087 16099 16111 16129 16133 16138 16141 [...] (34 flits)
Measured flits: 16062 16067 16070 16087 16099 16111 16129 16133 16138 16141 [...] (34 flits)
Class 0:
Remaining flits: 16062 16067 16087 16129 16148 16156 16157 16164 16167 16169 [...] (21 flits)
Measured flits: 16062 16067 16087 16129 16148 16156 16157 16164 16167 16169 [...] (21 flits)
Class 0:
Remaining flits: 16062 16067 16087 16156 16167 16169 16171 16176 16179 16181 [...] (13 flits)
Measured flits: 16062 16067 16087 16156 16167 16169 16171 16176 16179 16181 [...] (13 flits)
Class 0:
Remaining flits: 16062 16067 16087 16167 16169 16176 16179 16181 16182 16183 [...] (11 flits)
Measured flits: 16062 16067 16087 16167 16169 16176 16179 16181 16182 16183 [...] (11 flits)
Class 0:
Remaining flits: 16062 16067 16087 16167 16169 16176 16179 16181 16183 16185 (10 flits)
Measured flits: 16062 16067 16087 16167 16169 16176 16179 16181 16183 16185 (10 flits)
Class 0:
Remaining flits: 16062 16067 16087 16167 16169 16176 16179 16181 16183 16185 (10 flits)
Measured flits: 16062 16067 16087 16167 16169 16176 16179 16181 16183 16185 (10 flits)
Class 0:
Remaining flits: 16062 16067 16087 16167 16169 16176 16179 16181 16183 16185 (10 flits)
Measured flits: 16062 16067 16087 16167 16169 16176 16179 16181 16183 16185 (10 flits)
Class 0:
Remaining flits: 16062 16067 16087 16167 16169 16176 16179 16181 16183 16185 (10 flits)
Measured flits: 16062 16067 16087 16167 16169 16176 16179 16181 16183 16185 (10 flits)
Class 0:
Remaining flits: 16062 16067 16087 16167 16169 16176 16179 16181 16183 16185 (10 flits)
Measured flits: 16062 16067 16087 16167 16169 16176 16179 16181 16183 16185 (10 flits)
Class 0:
Remaining flits: 16062 16067 16087 16167 16169 16176 16179 16181 16183 16185 (10 flits)
Measured flits: 16062 16067 16087 16167 16169 16176 16179 16181 16183 16185 (10 flits)
Class 0:
Remaining flits: 16062 16067 16087 16167 16169 16176 16179 16181 16183 16185 (10 flits)
Measured flits: 16062 16067 16087 16167 16169 16176 16179 16181 16183 16185 (10 flits)
Class 0:
Remaining flits: 16062 16067 16087 16167 16169 16176 16179 16181 16183 16185 (10 flits)
Measured flits: 16062 16067 16087 16167 16169 16176 16179 16181 16183 16185 (10 flits)
Class 0:
Remaining flits: 16062 16067 16087 16167 16169 16176 16179 16181 16183 16185 (10 flits)
Measured flits: 16062 16067 16087 16167 16169 16176 16179 16181 16183 16185 (10 flits)
Class 0:
Remaining flits: 16062 16067 16087 16167 16169 16176 16179 16181 16183 16185 (10 flits)
Measured flits: 16062 16067 16087 16167 16169 16176 16179 16181 16183 16185 (10 flits)
Class 0:
Remaining flits: 16062 16067 16087 16167 16169 16176 16179 16181 16183 16185 (10 flits)
Measured flits: 16062 16067 16087 16167 16169 16176 16179 16181 16183 16185 (10 flits)
Class 0:
Remaining flits: 16062 16067 16087 16167 16169 16176 16179 16181 16183 16185 (10 flits)
Measured flits: 16062 16067 16087 16167 16169 16176 16179 16181 16183 16185 (10 flits)
Class 0:
Remaining flits: 16062 16067 16087 16167 16169 16176 16179 16181 16183 16185 (10 flits)
Measured flits: 16062 16067 16087 16167 16169 16176 16179 16181 16183 16185 (10 flits)
Class 0:
Remaining flits: 16062 16067 16087 16167 16169 16176 16179 16181 16183 16185 (10 flits)
Measured flits: 16062 16067 16087 16167 16169 16176 16179 16181 16183 16185 (10 flits)
Class 0:
Remaining flits: 16062 16067 16087 16167 16169 16176 16179 16181 16183 16185 (10 flits)
Measured flits: 16062 16067 16087 16167 16169 16176 16179 16181 16183 16185 (10 flits)
Class 0:
Remaining flits: 16062 16067 16087 16167 16169 16176 16179 16181 16183 16185 (10 flits)
Measured flits: 16062 16067 16087 16167 16169 16176 16179 16181 16183 16185 (10 flits)
Class 0:
Remaining flits: 16062 16067 16087 16167 16169 16176 16179 16181 16183 16185 (10 flits)
Measured flits: 16062 16067 16087 16167 16169 16176 16179 16181 16183 16185 (10 flits)
Class 0:
Remaining flits: 16062 16067 16087 16167 16169 16176 16179 16181 16183 16185 (10 flits)
Measured flits: 16062 16067 16087 16167 16169 16176 16179 16181 16183 16185 (10 flits)
Class 0:
Remaining flits: 16062 16067 16087 16167 16169 16176 16179 16181 16183 16185 (10 flits)
Measured flits: 16062 16067 16087 16167 16169 16176 16179 16181 16183 16185 (10 flits)
Class 0:
Remaining flits: 16062 16067 16087 16167 16169 16176 16179 16181 16183 16185 (10 flits)
Measured flits: 16062 16067 16087 16167 16169 16176 16179 16181 16183 16185 (10 flits)
Class 0:
Remaining flits: 16062 16067 16087 16167 16169 16176 16179 16181 16183 16185 (10 flits)
Measured flits: 16062 16067 16087 16167 16169 16176 16179 16181 16183 16185 (10 flits)
Class 0:
Remaining flits: 16062 16067 16087 16167 16169 16176 16179 16181 16183 16185 (10 flits)
Measured flits: 16062 16067 16087 16167 16169 16176 16179 16181 16183 16185 (10 flits)
Class 0:
Remaining flits: 16062 16067 16087 16167 16169 16176 16179 16181 16183 16185 (10 flits)
Measured flits: 16062 16067 16087 16167 16169 16176 16179 16181 16183 16185 (10 flits)
Class 0:
Remaining flits: 16062 16067 16087 16167 16169 16176 16179 16181 16183 16185 (10 flits)
Measured flits: 16062 16067 16087 16167 16169 16176 16179 16181 16183 16185 (10 flits)
Class 0:
Remaining flits: 16062 16067 16087 16167 16169 16176 16179 16181 16183 16185 (10 flits)
Measured flits: 16062 16067 16087 16167 16169 16176 16179 16181 16183 16185 (10 flits)
Class 0:
Remaining flits: 16062 16067 16087 16167 16169 16176 16179 16181 16183 16185 (10 flits)
Measured flits: 16062 16067 16087 16167 16169 16176 16179 16181 16183 16185 (10 flits)
Class 0:
Remaining flits: 16062 16067 16087 16167 16169 16176 16179 16181 16183 16185 (10 flits)
Measured flits: 16062 16067 16087 16167 16169 16176 16179 16181 16183 16185 (10 flits)
Class 0:
Remaining flits: 16062 16067 16087 16167 16169 16176 16179 16181 16183 16185 (10 flits)
Measured flits: 16062 16067 16087 16167 16169 16176 16179 16181 16183 16185 (10 flits)
Class 0:
Remaining flits: 16062 16067 16087 16167 16169 16176 16179 16181 16183 16185 (10 flits)
Measured flits: 16062 16067 16087 16167 16169 16176 16179 16181 16183 16185 (10 flits)
Class 0:
Remaining flits: 16062 16067 16087 16167 16169 16176 16179 16181 16183 16185 (10 flits)
Measured flits: 16062 16067 16087 16167 16169 16176 16179 16181 16183 16185 (10 flits)
Class 0:
Remaining flits: 16062 16067 16087 16167 16169 16176 16179 16181 16183 16185 (10 flits)
Measured flits: 16062 16067 16087 16167 16169 16176 16179 16181 16183 16185 (10 flits)
Class 0:
Remaining flits: 16062 16067 16087 16167 16169 16176 16179 16181 16183 16185 (10 flits)
Measured flits: 16062 16067 16087 16167 16169 16176 16179 16181 16183 16185 (10 flits)
Class 0:
Remaining flits: 16062 16067 16087 16167 16169 16176 16179 16181 16183 16185 (10 flits)
Measured flits: 16062 16067 16087 16167 16169 16176 16179 16181 16183 16185 (10 flits)
Class 0:
Remaining flits: 16062 16067 16087 16167 16169 16176 16179 16181 16183 16185 (10 flits)
Measured flits: 16062 16067 16087 16167 16169 16176 16179 16181 16183 16185 (10 flits)
Class 0:
Remaining flits: 16062 16067 16087 16167 16169 16176 16179 16181 16183 16185 (10 flits)
Measured flits: 16062 16067 16087 16167 16169 16176 16179 16181 16183 16185 (10 flits)
Class 0:
Remaining flits: 16062 16067 16087 16167 16169 16176 16179 16181 16183 16185 (10 flits)
Measured flits: 16062 16067 16087 16167 16169 16176 16179 16181 16183 16185 (10 flits)
Class 0:
Remaining flits: 16062 16067 16087 16167 16169 16176 16179 16181 16183 16185 (10 flits)
Measured flits: 16062 16067 16087 16167 16169 16176 16179 16181 16183 16185 (10 flits)
Class 0:
Remaining flits: 16062 16067 16087 16167 16169 16176 16179 16181 16183 16185 (10 flits)
Measured flits: 16062 16067 16087 16167 16169 16176 16179 16181 16183 16185 (10 flits)
Class 0:
Remaining flits: 16062 16067 16087 16167 16169 16176 16179 16181 16183 16185 (10 flits)
Measured flits: 16062 16067 16087 16167 16169 16176 16179 16181 16183 16185 (10 flits)
Class 0:
Remaining flits: 16062 16067 16087 16167 16169 16176 16179 16181 16183 16185 (10 flits)
Measured flits: 16062 16067 16087 16167 16169 16176 16179 16181 16183 16185 (10 flits)
Class 0:
Remaining flits: 16062 16067 16087 16167 16169 16176 16179 16181 16183 16185 (10 flits)
Measured flits: 16062 16067 16087 16167 16169 16176 16179 16181 16183 16185 (10 flits)
Class 0:
Remaining flits: 16062 16067 16087 16167 16169 16176 16179 16181 16183 16185 (10 flits)
Measured flits: 16062 16067 16087 16167 16169 16176 16179 16181 16183 16185 (10 flits)
Class 0:
Remaining flits: 16062 16067 16087 16167 16169 16176 16179 16181 16183 16185 (10 flits)
Measured flits: 16062 16067 16087 16167 16169 16176 16179 16181 16183 16185 (10 flits)
Class 0:
Remaining flits: 16062 16067 16087 16167 16169 16176 16179 16181 16183 16185 (10 flits)
Measured flits: 16062 16067 16087 16167 16169 16176 16179 16181 16183 16185 (10 flits)
Class 0:
Remaining flits: 16062 16067 16087 16167 16169 16176 16179 16181 16183 16185 (10 flits)
Measured flits: 16062 16067 16087 16167 16169 16176 16179 16181 16183 16185 (10 flits)
Class 0:
Remaining flits: 16062 16067 16087 16167 16169 16176 16179 16181 16183 16185 (10 flits)
Measured flits: 16062 16067 16087 16167 16169 16176 16179 16181 16183 16185 (10 flits)
Class 0:
Remaining flits: 16062 16067 16087 16167 16169 16176 16179 16181 16183 16185 (10 flits)
Measured flits: 16062 16067 16087 16167 16169 16176 16179 16181 16183 16185 (10 flits)
Class 0:
Remaining flits: 16062 16067 16087 16167 16169 16176 16179 16181 16183 16185 (10 flits)
Measured flits: 16062 16067 16087 16167 16169 16176 16179 16181 16183 16185 (10 flits)
Class 0:
Remaining flits: 16062 16067 16087 16167 16169 16176 16179 16181 16183 16185 (10 flits)
Measured flits: 16062 16067 16087 16167 16169 16176 16179 16181 16183 16185 (10 flits)
Class 0:
Remaining flits: 16062 16067 16087 16167 16169 16176 16179 16181 16183 16185 (10 flits)
Measured flits: 16062 16067 16087 16167 16169 16176 16179 16181 16183 16185 (10 flits)
Class 0:
Remaining flits: 16062 16067 16087 16167 16169 16176 16179 16181 16183 16185 (10 flits)
Measured flits: 16062 16067 16087 16167 16169 16176 16179 16181 16183 16185 (10 flits)
Class 0:
Remaining flits: 16062 16067 16087 16167 16169 16176 16179 16181 16183 16185 (10 flits)
Measured flits: 16062 16067 16087 16167 16169 16176 16179 16181 16183 16185 (10 flits)
Class 0:
Remaining flits: 16062 16067 16087 16167 16169 16176 16179 16181 16183 16185 (10 flits)
Measured flits: 16062 16067 16087 16167 16169 16176 16179 16181 16183 16185 (10 flits)
Class 0:
Remaining flits: 16062 16067 16087 16167 16169 16176 16179 16181 16183 16185 (10 flits)
Measured flits: 16062 16067 16087 16167 16169 16176 16179 16181 16183 16185 (10 flits)
Class 0:
Remaining flits: 16062 16067 16087 16167 16169 16176 16179 16181 16183 16185 (10 flits)
Measured flits: 16062 16067 16087 16167 16169 16176 16179 16181 16183 16185 (10 flits)
Class 0:
Remaining flits: 16062 16067 16087 16167 16169 16176 16179 16181 16183 16185 (10 flits)
Measured flits: 16062 16067 16087 16167 16169 16176 16179 16181 16183 16185 (10 flits)
Class 0:
Remaining flits: 16062 16067 16087 16167 16169 16176 16179 16181 16183 16185 (10 flits)
Measured flits: 16062 16067 16087 16167 16169 16176 16179 16181 16183 16185 (10 flits)
Class 0:
Remaining flits: 16062 16067 16087 16167 16169 16176 16179 16181 16183 16185 (10 flits)
Measured flits: 16062 16067 16087 16167 16169 16176 16179 16181 16183 16185 (10 flits)
Class 0:
Remaining flits: 16062 16067 16087 16167 16169 16176 16179 16181 16183 16185 (10 flits)
Measured flits: 16062 16067 16087 16167 16169 16176 16179 16181 16183 16185 (10 flits)
Class 0:
Remaining flits: 16062 16067 16087 16167 16169 16176 16179 16181 16183 16185 (10 flits)
Measured flits: 16062 16067 16087 16167 16169 16176 16179 16181 16183 16185 (10 flits)
Class 0:
Remaining flits: 16062 16067 16087 16167 16169 16176 16179 16181 16183 16185 (10 flits)
Measured flits: 16062 16067 16087 16167 16169 16176 16179 16181 16183 16185 (10 flits)
Class 0:
Remaining flits: 16062 16067 16087 16167 16169 16176 16179 16181 16183 16185 (10 flits)
Measured flits: 16062 16067 16087 16167 16169 16176 16179 16181 16183 16185 (10 flits)
Class 0:
Remaining flits: 16062 16067 16087 16167 16169 16176 16179 16181 16183 16185 (10 flits)
Measured flits: 16062 16067 16087 16167 16169 16176 16179 16181 16183 16185 (10 flits)
Class 0:
Remaining flits: 16062 16067 16087 16167 16169 16176 16179 16181 16183 16185 (10 flits)
Measured flits: 16062 16067 16087 16167 16169 16176 16179 16181 16183 16185 (10 flits)
Class 0:
Remaining flits: 16062 16067 16087 16167 16169 16176 16179 16181 16183 16185 (10 flits)
Measured flits: 16062 16067 16087 16167 16169 16176 16179 16181 16183 16185 (10 flits)
Class 0:
Remaining flits: 16062 16067 16087 16167 16169 16176 16179 16181 16183 16185 (10 flits)
Measured flits: 16062 16067 16087 16167 16169 16176 16179 16181 16183 16185 (10 flits)
Class 0:
Remaining flits: 16062 16067 16087 16167 16169 16176 16179 16181 16183 16185 (10 flits)
Measured flits: 16062 16067 16087 16167 16169 16176 16179 16181 16183 16185 (10 flits)
Class 0:
Remaining flits: 16062 16067 16087 16167 16169 16176 16179 16181 16183 16185 (10 flits)
Measured flits: 16062 16067 16087 16167 16169 16176 16179 16181 16183 16185 (10 flits)
Class 0:
Remaining flits: 16062 16067 16087 16167 16169 16176 16179 16181 16183 16185 (10 flits)
Measured flits: 16062 16067 16087 16167 16169 16176 16179 16181 16183 16185 (10 flits)
Class 0:
Remaining flits: 16062 16067 16087 16167 16169 16176 16179 16181 16183 16185 (10 flits)
Measured flits: 16062 16067 16087 16167 16169 16176 16179 16181 16183 16185 (10 flits)
Class 0:
Remaining flits: 16062 16067 16087 16167 16169 16176 16179 16181 16183 16185 (10 flits)
Measured flits: 16062 16067 16087 16167 16169 16176 16179 16181 16183 16185 (10 flits)
Class 0:
Remaining flits: 16062 16067 16087 16167 16169 16176 16179 16181 16183 16185 (10 flits)
Measured flits: 16062 16067 16087 16167 16169 16176 16179 16181 16183 16185 (10 flits)
Class 0:
Remaining flits: 16062 16067 16087 16167 16169 16176 16179 16181 16183 16185 (10 flits)
Measured flits: 16062 16067 16087 16167 16169 16176 16179 16181 16183 16185 (10 flits)
Class 0:
Remaining flits: 16062 16067 16087 16167 16169 16176 16179 16181 16183 16185 (10 flits)
Measured flits: 16062 16067 16087 16167 16169 16176 16179 16181 16183 16185 (10 flits)
Class 0:
Remaining flits: 16062 16067 16087 16167 16169 16176 16179 16181 16183 16185 (10 flits)
Measured flits: 16062 16067 16087 16167 16169 16176 16179 16181 16183 16185 (10 flits)
Class 0:
Remaining flits: 16062 16067 16087 16167 16169 16176 16179 16181 16183 16185 (10 flits)
Measured flits: 16062 16067 16087 16167 16169 16176 16179 16181 16183 16185 (10 flits)
Class 0:
Remaining flits: 16062 16067 16087 16167 16169 16176 16179 16181 16183 16185 (10 flits)
Measured flits: 16062 16067 16087 16167 16169 16176 16179 16181 16183 16185 (10 flits)
Class 0:
Remaining flits: 16062 16067 16087 16167 16169 16176 16179 16181 16183 16185 (10 flits)
Measured flits: 16062 16067 16087 16167 16169 16176 16179 16181 16183 16185 (10 flits)
Class 0:
Remaining flits: 16062 16067 16087 16167 16169 16176 16179 16181 16183 16185 (10 flits)
Measured flits: 16062 16067 16087 16167 16169 16176 16179 16181 16183 16185 (10 flits)
Class 0:
Remaining flits: 16062 16067 16087 16167 16169 16176 16179 16181 16183 16185 (10 flits)
Measured flits: 16062 16067 16087 16167 16169 16176 16179 16181 16183 16185 (10 flits)
Class 0:
Remaining flits: 16062 16067 16087 16167 16169 16176 16179 16181 16183 16185 (10 flits)
Measured flits: 16062 16067 16087 16167 16169 16176 16179 16181 16183 16185 (10 flits)
Class 0:
Remaining flits: 16062 16067 16087 16167 16169 16176 16179 16181 16183 16185 (10 flits)
Measured flits: 16062 16067 16087 16167 16169 16176 16179 16181 16183 16185 (10 flits)
Class 0:
Remaining flits: 16062 16067 16087 16167 16169 16176 16179 16181 16183 16185 (10 flits)
Measured flits: 16062 16067 16087 16167 16169 16176 16179 16181 16183 16185 (10 flits)
Class 0:
Remaining flits: 16062 16067 16087 16167 16169 16176 16179 16181 16183 16185 (10 flits)
Measured flits: 16062 16067 16087 16167 16169 16176 16179 16181 16183 16185 (10 flits)
Class 0:
Remaining flits: 16062 16067 16087 16167 16169 16176 16179 16181 16183 16185 (10 flits)
Measured flits: 16062 16067 16087 16167 16169 16176 16179 16181 16183 16185 (10 flits)
Class 0:
Remaining flits: 16062 16067 16087 16167 16169 16176 16179 16181 16183 16185 (10 flits)
Measured flits: 16062 16067 16087 16167 16169 16176 16179 16181 16183 16185 (10 flits)
Time taken is 7000 cycles
====== Traffic class 0 ======

Total number of flits generated = 16186, changed lanes = 16003
Overall minimum packet latency = 434 (1 samples)
Overall average packet latency = 943.576 (1 samples)
Overall maximum packet latency = 1536 (1 samples)
Overall minimum network latency = 98 (1 samples)
Overall average network latency = 128.306 (1 samples)
Overall maximum network latency = 262 (1 samples)
Overall minimum flit latency = 98 (1 samples)
Overall average flit latency = 128.323 (1 samples)
Overall maximum flit latency = 262 (1 samples)
Overall minimum fragmentation = 0 (1 samples)
Overall average fragmentation = 0 (1 samples)
Overall maximum fragmentation = 0 (1 samples)
Overall minimum injected packet rate = 0.163 (1 samples)
Overall average injected packet rate = 0.166167 (1 samples)
Overall maximum injected packet rate = 0.167 (1 samples)
Overall minimum accepted packet rate = 0.145667 (1 samples)
Overall average accepted packet rate = 0.166146 (1 samples)
Overall maximum accepted packet rate = 0.179667 (1 samples)
Overall minimum injected flit rate = 0.163 (1 samples)
Overall average injected flit rate = 0.166167 (1 samples)
Overall maximum injected flit rate = 0.167 (1 samples)
Overall minimum accepted flit rate = 0.145667 (1 samples)
Overall average accepted flit rate = 0.166146 (1 samples)
Overall maximum accepted flit rate = 0.179667 (1 samples)
Overall average injected packet size = 1 (1 samples)
Overall average accepted packet size = 1 (1 samples)
Overall average hops = 2.9995 (1 samples)
Overall throughput of the network (flits/cycle) = 5.392
Overall throughput of the network (packets/cycle) = 5.392
Total run time 4031.1
