make: Nothing to be done for `all'.
Master: Running timer....
Master: Running SRC....
BEGIN Configuration File: ./examples/bitrev
// Topology

topology = torus;
k = 4;
n = 2;

// Routing
routing_function = dim_order;

// Flow control
num_vcs     = 4;
vc_buf_size = 4;
wait_for_tail_credit = 0;

// Router architecture
vc_allocator = islip;
sw_allocator = islip;
alloc_iters  = 1;

credit_delay   = 1;
routing_delay  = 1;
vc_alloc_delay = 1;
sw_alloc_delay = 1;

input_speedup     = 1;
output_speedup    = 1;
internal_speedup  = 1.0;

vc_busy_when_full = 0;

// Traffic
traffic = uniform;
packet_size = 1;

// Simulation
sim_type = throughput;

injection_rate = 0.35;

END Configuration File: ./examples/bitrev
===== Time: 1000 =====
Class 0:
Minimum packet latency = 9
Average packet latency = 282.457
Maximum packet latency = 608
Minimum network latency = 10
Average network latency = 119.588
Maximum network latency = 194
Slowest packet = 273
Minimum flit latency = 10
Average flit latency = 119.588
Maximum flit latency = 194
Slowest flit = 1258
Minimum fragmentation = 0
Average fragmentation = 0
Maximum fragmentation = 0
Minimum injected packet rate = 0.175 (at node 0)
Average injected packet rate = 0.180938
Maximum injected packet rate = 0.182 (at node 5)
Minimum accepted packet rate = 0.138 (at node 14)
Average accepted packet rate = 0.159
Maximum accepted packet rate = 0.181 (at node 8)
Minimum injected flit rate = 0.175 (at node 0)
Average injected flit rate = 0.180938
Maximum injected flit rate = 0.182 (at node 5)
Minimum accepted flit rate = 0.138 (at node 14)
Average accepted flit rate = 0.159
Maximum accepted flit rate = 0.181 (at node 8)
Total number of injected packets = 2895
Total number of injected flits = 2895
Average injected packet length = 1
Total number of accepted packets = 2544
Total number of accepted flits = 2544
Average accepted packet length = 1
Total in-flight flits = 363 (0 measured)
===== Time: 2000 =====
Class 0:
Minimum packet latency = 9
Average packet latency = 544.169
Maximum packet latency = 1143
Minimum network latency = 10
Average network latency = 124.524
Maximum network latency = 241
Slowest packet = 273
Minimum flit latency = 10
Average flit latency = 124.524
Maximum flit latency = 241
Slowest flit = 4707
Minimum fragmentation = 0
Average fragmentation = 0
Maximum fragmentation = 0
Minimum injected packet rate = 0.169 (at node 6)
Average injected packet rate = 0.173219
Maximum injected packet rate = 0.1745 (at node 5)
Minimum accepted packet rate = 0.1425 (at node 4)
Average accepted packet rate = 0.162438
Maximum accepted packet rate = 0.1825 (at node 8)
Minimum injected flit rate = 0.169 (at node 6)
Average injected flit rate = 0.173219
Maximum injected flit rate = 0.1745 (at node 5)
Minimum accepted flit rate = 0.1425 (at node 4)
Average accepted flit rate = 0.162438
Maximum accepted flit rate = 0.1825 (at node 8)
Total number of injected packets = 5543
Total number of injected flits = 5543
Average injected packet length = 1
Total number of accepted packets = 5198
Total number of accepted flits = 5198
Average accepted packet length = 1
Total in-flight flits = 358 (0 measured)
===== Time: 3000 =====
Class 0:
Minimum packet latency = 994
Average packet latency = 1321.45
Maximum packet latency = 1671
Minimum network latency = 98
Average network latency = 128.196
Maximum network latency = 230
Slowest packet = 5166
Minimum flit latency = 98
Average flit latency = 128.196
Maximum flit latency = 230
Slowest flit = 4942
Minimum fragmentation = 0
Average fragmentation = 0
Maximum fragmentation = 0
Minimum injected packet rate = 0.165 (at node 12)
Average injected packet rate = 0.166437
Maximum injected packet rate = 0.167 (at node 0)
Minimum accepted packet rate = 0.15 (at node 2)
Average accepted packet rate = 0.166437
Maximum accepted packet rate = 0.196 (at node 7)
Minimum injected flit rate = 0.165 (at node 12)
Average injected flit rate = 0.166437
Maximum injected flit rate = 0.167 (at node 0)
Minimum accepted flit rate = 0.15 (at node 2)
Average accepted flit rate = 0.166437
Maximum accepted flit rate = 0.196 (at node 7)
Total number of injected packets = 2663
Total number of injected flits = 2663
Average injected packet length = 1
Total number of accepted packets = 2663
Total number of accepted flits = 2663
Average accepted packet length = 1
Total in-flight flits = 358 (0 measured)
===== Time: 4000 =====
Class 0:
Minimum packet latency = 1532
Average packet latency = 1875.35
Maximum packet latency = 2214
Minimum network latency = 97
Average network latency = 127.887
Maximum network latency = 183
Slowest packet = 8238
Minimum flit latency = 97
Average flit latency = 128.109
Maximum flit latency = 183
Slowest flit = 10346
Minimum fragmentation = 0
Average fragmentation = 0
Maximum fragmentation = 0
Minimum injected packet rate = 0.166 (at node 0)
Average injected packet rate = 0.166625
Maximum injected packet rate = 0.167 (at node 1)
Minimum accepted packet rate = 0.144 (at node 5)
Average accepted packet rate = 0.166687
Maximum accepted packet rate = 0.191 (at node 11)
Minimum injected flit rate = 0.166 (at node 0)
Average injected flit rate = 0.166625
Maximum injected flit rate = 0.167 (at node 1)
Minimum accepted flit rate = 0.144 (at node 5)
Average accepted flit rate = 0.166687
Maximum accepted flit rate = 0.191 (at node 11)
Total number of injected packets = 2666
Total number of injected flits = 2666
Average injected packet length = 1
Total number of accepted packets = 2667
Total number of accepted flits = 2667
Average accepted packet length = 1
Total in-flight flits = 358 (358 measured)
===== Time: 5000 =====
Class 0:
Minimum packet latency = 1532
Average packet latency = 2130.94
Maximum packet latency = 2745
Minimum network latency = 97
Average network latency = 128.223
Maximum network latency = 190
Slowest packet = 8238
Minimum flit latency = 97
Average flit latency = 128.311
Maximum flit latency = 190
Slowest flit = 13002
Minimum fragmentation = 0
Average fragmentation = 0
Maximum fragmentation = 0
Minimum injected packet rate = 0.166 (at node 0)
Average injected packet rate = 0.166719
Maximum injected packet rate = 0.167 (at node 1)
Minimum accepted packet rate = 0.1515 (at node 4)
Average accepted packet rate = 0.166531
Maximum accepted packet rate = 0.181 (at node 8)
Minimum injected flit rate = 0.166 (at node 0)
Average injected flit rate = 0.166719
Maximum injected flit rate = 0.167 (at node 1)
Minimum accepted flit rate = 0.1515 (at node 4)
Average accepted flit rate = 0.166531
Maximum accepted flit rate = 0.181 (at node 8)
Total number of injected packets = 5335
Total number of injected flits = 5335
Average injected packet length = 1
Total number of accepted packets = 5329
Total number of accepted flits = 5329
Average accepted packet length = 1
Total in-flight flits = 360 (360 measured)
===== Time: 6000 =====
Class 0:
Minimum packet latency = 1532
Average packet latency = 2394.9
Maximum packet latency = 3271
Minimum network latency = 96
Average network latency = 128.299
Maximum network latency = 190
Slowest packet = 8238
Minimum flit latency = 96
Average flit latency = 128.354
Maximum flit latency = 190
Slowest flit = 13002
Minimum fragmentation = 0
Average fragmentation = 0
Maximum fragmentation = 0
Minimum injected packet rate = 0.166 (at node 0)
Average injected packet rate = 0.166479
Maximum injected packet rate = 0.166667 (at node 1)
Minimum accepted packet rate = 0.149333 (at node 4)
Average accepted packet rate = 0.166542
Maximum accepted packet rate = 0.177667 (at node 3)
Minimum injected flit rate = 0.166 (at node 0)
Average injected flit rate = 0.166479
Maximum injected flit rate = 0.166667 (at node 1)
Minimum accepted flit rate = 0.149333 (at node 4)
Average accepted flit rate = 0.166542
Maximum accepted flit rate = 0.177667 (at node 3)
Total number of injected packets = 7991
Total number of injected flits = 7991
Average injected packet length = 1
Total number of accepted packets = 7994
Total number of accepted flits = 7994
Average accepted packet length = 1
Total in-flight flits = 357 (357 measured)
Draining remaining packets ...
Class 0:
Remaining flits: 15807 15824 15825 15832 15835 15844 15856 15857 15859 15863 [...] (326 flits)
Measured flits: 15807 15824 15825 15832 15835 15844 15856 15857 15859 15863 [...] (326 flits)
Class 0:
Remaining flits: 15807 15824 15859 15864 15878 15880 15884 15886 15893 15897 [...] (295 flits)
Measured flits: 15807 15824 15859 15864 15878 15880 15884 15886 15893 15897 [...] (295 flits)
Class 0:
Remaining flits: 15807 15824 15864 15893 15897 15900 15901 15902 15914 15916 [...] (272 flits)
Measured flits: 15807 15824 15864 15893 15897 15900 15901 15902 15914 15916 [...] (272 flits)
Class 0:
Remaining flits: 15807 15916 15931 15933 15938 15941 15944 15945 15947 15949 [...] (244 flits)
Measured flits: 15807 15916 15931 15933 15938 15941 15944 15945 15947 15949 [...] (244 flits)
Class 0:
Remaining flits: 15916 15945 15949 15955 15966 15975 15979 15980 15981 15982 [...] (225 flits)
Measured flits: 15916 15945 15949 15955 15966 15975 15979 15980 15981 15982 [...] (225 flits)
Class 0:
Remaining flits: 15975 15979 15980 15987 15989 15990 15994 15996 15997 16000 [...] (200 flits)
Measured flits: 15975 15979 15980 15987 15989 15990 15994 15996 15997 16000 [...] (200 flits)
Class 0:
Remaining flits: 15980 15987 15996 15997 16002 16009 16011 16014 16019 16020 [...] (171 flits)
Measured flits: 15980 15987 15996 15997 16002 16009 16011 16014 16019 16020 [...] (171 flits)
Class 0:
Remaining flits: 15980 15996 15997 16011 16021 16023 16031 16039 16042 16044 [...] (150 flits)
Measured flits: 15980 15996 15997 16011 16021 16023 16031 16039 16042 16044 [...] (150 flits)
Class 0:
Remaining flits: 15996 16011 16039 16044 16049 16050 16058 16059 16060 16061 [...] (127 flits)
Measured flits: 15996 16011 16039 16044 16049 16050 16058 16059 16060 16061 [...] (127 flits)
Class 0:
Remaining flits: 16044 16050 16058 16059 16071 16073 16075 16084 16087 16090 [...] (97 flits)
Measured flits: 16044 16050 16058 16059 16071 16073 16075 16084 16087 16090 [...] (97 flits)
Class 0:
Remaining flits: 16059 16090 16096 16107 16110 16112 16116 16123 16126 16128 [...] (71 flits)
Measured flits: 16059 16090 16096 16107 16110 16112 16116 16123 16126 16128 [...] (71 flits)
Class 0:
Remaining flits: 16107 16112 16130 16133 16134 16148 16149 16150 16157 16159 [...] (45 flits)
Measured flits: 16107 16112 16130 16133 16134 16148 16149 16150 16157 16159 [...] (45 flits)
Class 0:
Remaining flits: 16148 16149 16172 16173 16180 16181 16182 16187 16189 16197 [...] (20 flits)
Measured flits: 16148 16149 16172 16173 16180 16181 16182 16187 16189 16197 [...] (20 flits)
Class 0:
Remaining flits: 16189 16197 16198 16199 16200 16201 16206 16207 16208 16209 [...] (12 flits)
Measured flits: 16189 16197 16198 16199 16200 16201 16206 16207 16208 16209 [...] (12 flits)
Class 0:
Remaining flits: 16197 16198 16199 16200 16201 16206 16207 16208 16209 16210 [...] (11 flits)
Measured flits: 16197 16198 16199 16200 16201 16206 16207 16208 16209 16210 [...] (11 flits)
Class 0:
Remaining flits: 16197 16198 16199 16200 16201 16206 16207 16208 16209 16210 [...] (11 flits)
Measured flits: 16197 16198 16199 16200 16201 16206 16207 16208 16209 16210 [...] (11 flits)
Class 0:
Remaining flits: 16197 16198 16199 16200 16201 16206 16207 16208 16209 16210 [...] (11 flits)
Measured flits: 16197 16198 16199 16200 16201 16206 16207 16208 16209 16210 [...] (11 flits)
Class 0:
Remaining flits: 16197 16198 16199 16200 16201 16206 16207 16208 16209 16210 [...] (11 flits)
Measured flits: 16197 16198 16199 16200 16201 16206 16207 16208 16209 16210 [...] (11 flits)
Class 0:
Remaining flits: 16197 16198 16199 16200 16201 16206 16207 16208 16209 16210 [...] (11 flits)
Measured flits: 16197 16198 16199 16200 16201 16206 16207 16208 16209 16210 [...] (11 flits)
Class 0:
Remaining flits: 16197 16198 16199 16200 16201 16206 16207 16208 16209 16210 [...] (11 flits)
Measured flits: 16197 16198 16199 16200 16201 16206 16207 16208 16209 16210 [...] (11 flits)
Class 0:
Remaining flits: 16197 16198 16199 16200 16201 16206 16207 16208 16209 16210 [...] (11 flits)
Measured flits: 16197 16198 16199 16200 16201 16206 16207 16208 16209 16210 [...] (11 flits)
Class 0:
Remaining flits: 16197 16198 16199 16200 16201 16206 16207 16208 16209 16210 [...] (11 flits)
Measured flits: 16197 16198 16199 16200 16201 16206 16207 16208 16209 16210 [...] (11 flits)
Class 0:
Remaining flits: 16197 16198 16199 16200 16201 16206 16207 16208 16209 16210 [...] (11 flits)
Measured flits: 16197 16198 16199 16200 16201 16206 16207 16208 16209 16210 [...] (11 flits)
Class 0:
Remaining flits: 16197 16198 16199 16200 16201 16206 16207 16208 16209 16210 [...] (11 flits)
Measured flits: 16197 16198 16199 16200 16201 16206 16207 16208 16209 16210 [...] (11 flits)
Class 0:
Remaining flits: 16197 16198 16199 16200 16201 16206 16207 16208 16209 16210 [...] (11 flits)
Measured flits: 16197 16198 16199 16200 16201 16206 16207 16208 16209 16210 [...] (11 flits)
Class 0:
Remaining flits: 16197 16198 16199 16200 16201 16206 16207 16208 16209 16210 [...] (11 flits)
Measured flits: 16197 16198 16199 16200 16201 16206 16207 16208 16209 16210 [...] (11 flits)
Class 0:
Remaining flits: 16197 16198 16199 16200 16201 16206 16207 16208 16209 16210 [...] (11 flits)
Measured flits: 16197 16198 16199 16200 16201 16206 16207 16208 16209 16210 [...] (11 flits)
Class 0:
Remaining flits: 16197 16198 16199 16200 16201 16206 16207 16208 16209 16210 [...] (11 flits)
Measured flits: 16197 16198 16199 16200 16201 16206 16207 16208 16209 16210 [...] (11 flits)
Class 0:
Remaining flits: 16197 16198 16199 16200 16201 16206 16207 16208 16209 16210 [...] (11 flits)
Measured flits: 16197 16198 16199 16200 16201 16206 16207 16208 16209 16210 [...] (11 flits)
Class 0:
Remaining flits: 16197 16198 16199 16200 16201 16206 16207 16208 16209 16210 [...] (11 flits)
Measured flits: 16197 16198 16199 16200 16201 16206 16207 16208 16209 16210 [...] (11 flits)
Class 0:
Remaining flits: 16197 16198 16199 16200 16201 16206 16207 16208 16209 16210 [...] (11 flits)
Measured flits: 16197 16198 16199 16200 16201 16206 16207 16208 16209 16210 [...] (11 flits)
Class 0:
Remaining flits: 16197 16198 16199 16200 16201 16206 16207 16208 16209 16210 [...] (11 flits)
Measured flits: 16197 16198 16199 16200 16201 16206 16207 16208 16209 16210 [...] (11 flits)
Class 0:
Remaining flits: 16197 16198 16199 16200 16201 16206 16207 16208 16209 16210 [...] (11 flits)
Measured flits: 16197 16198 16199 16200 16201 16206 16207 16208 16209 16210 [...] (11 flits)
Class 0:
Remaining flits: 16197 16198 16199 16200 16201 16206 16207 16208 16209 16210 [...] (11 flits)
Measured flits: 16197 16198 16199 16200 16201 16206 16207 16208 16209 16210 [...] (11 flits)
Class 0:
Remaining flits: 16197 16198 16199 16200 16201 16206 16207 16208 16209 16210 [...] (11 flits)
Measured flits: 16197 16198 16199 16200 16201 16206 16207 16208 16209 16210 [...] (11 flits)
Class 0:
Remaining flits: 16197 16198 16199 16200 16201 16206 16207 16208 16209 16210 [...] (11 flits)
Measured flits: 16197 16198 16199 16200 16201 16206 16207 16208 16209 16210 [...] (11 flits)
Class 0:
Remaining flits: 16197 16198 16199 16200 16201 16206 16207 16208 16209 16210 [...] (11 flits)
Measured flits: 16197 16198 16199 16200 16201 16206 16207 16208 16209 16210 [...] (11 flits)
Class 0:
Remaining flits: 16197 16198 16199 16200 16201 16206 16207 16208 16209 16210 [...] (11 flits)
Measured flits: 16197 16198 16199 16200 16201 16206 16207 16208 16209 16210 [...] (11 flits)
Class 0:
Remaining flits: 16197 16198 16199 16200 16201 16206 16207 16208 16209 16210 [...] (11 flits)
Measured flits: 16197 16198 16199 16200 16201 16206 16207 16208 16209 16210 [...] (11 flits)
Class 0:
Remaining flits: 16197 16198 16199 16200 16201 16206 16207 16208 16209 16210 [...] (11 flits)
Measured flits: 16197 16198 16199 16200 16201 16206 16207 16208 16209 16210 [...] (11 flits)
Class 0:
Remaining flits: 16197 16198 16199 16200 16201 16206 16207 16208 16209 16210 [...] (11 flits)
Measured flits: 16197 16198 16199 16200 16201 16206 16207 16208 16209 16210 [...] (11 flits)
Class 0:
Remaining flits: 16197 16198 16199 16200 16201 16206 16207 16208 16209 16210 [...] (11 flits)
Measured flits: 16197 16198 16199 16200 16201 16206 16207 16208 16209 16210 [...] (11 flits)
Class 0:
Remaining flits: 16197 16198 16199 16200 16201 16206 16207 16208 16209 16210 [...] (11 flits)
Measured flits: 16197 16198 16199 16200 16201 16206 16207 16208 16209 16210 [...] (11 flits)
Class 0:
Remaining flits: 16197 16198 16199 16200 16201 16206 16207 16208 16209 16210 [...] (11 flits)
Measured flits: 16197 16198 16199 16200 16201 16206 16207 16208 16209 16210 [...] (11 flits)
Class 0:
Remaining flits: 16197 16198 16199 16200 16201 16206 16207 16208 16209 16210 [...] (11 flits)
Measured flits: 16197 16198 16199 16200 16201 16206 16207 16208 16209 16210 [...] (11 flits)
Class 0:
Remaining flits: 16197 16198 16199 16200 16201 16206 16207 16208 16209 16210 [...] (11 flits)
Measured flits: 16197 16198 16199 16200 16201 16206 16207 16208 16209 16210 [...] (11 flits)
Class 0:
Remaining flits: 16197 16198 16199 16200 16201 16206 16207 16208 16209 16210 [...] (11 flits)
Measured flits: 16197 16198 16199 16200 16201 16206 16207 16208 16209 16210 [...] (11 flits)
Class 0:
Remaining flits: 16197 16198 16199 16200 16201 16206 16207 16208 16209 16210 [...] (11 flits)
Measured flits: 16197 16198 16199 16200 16201 16206 16207 16208 16209 16210 [...] (11 flits)
Class 0:
Remaining flits: 16197 16198 16199 16200 16201 16206 16207 16208 16209 16210 [...] (11 flits)
Measured flits: 16197 16198 16199 16200 16201 16206 16207 16208 16209 16210 [...] (11 flits)
Class 0:
Remaining flits: 16197 16198 16199 16200 16201 16206 16207 16208 16209 16210 [...] (11 flits)
Measured flits: 16197 16198 16199 16200 16201 16206 16207 16208 16209 16210 [...] (11 flits)
Class 0:
Remaining flits: 16197 16198 16199 16200 16201 16206 16207 16208 16209 16210 [...] (11 flits)
Measured flits: 16197 16198 16199 16200 16201 16206 16207 16208 16209 16210 [...] (11 flits)
Class 0:
Remaining flits: 16197 16198 16199 16200 16201 16206 16207 16208 16209 16210 [...] (11 flits)
Measured flits: 16197 16198 16199 16200 16201 16206 16207 16208 16209 16210 [...] (11 flits)
Class 0:
Remaining flits: 16197 16198 16199 16200 16201 16206 16207 16208 16209 16210 [...] (11 flits)
Measured flits: 16197 16198 16199 16200 16201 16206 16207 16208 16209 16210 [...] (11 flits)
Class 0:
Remaining flits: 16197 16198 16199 16200 16201 16206 16207 16208 16209 16210 [...] (11 flits)
Measured flits: 16197 16198 16199 16200 16201 16206 16207 16208 16209 16210 [...] (11 flits)
Class 0:
Remaining flits: 16197 16198 16199 16200 16201 16206 16207 16208 16209 16210 [...] (11 flits)
Measured flits: 16197 16198 16199 16200 16201 16206 16207 16208 16209 16210 [...] (11 flits)
Class 0:
Remaining flits: 16197 16198 16199 16200 16201 16206 16207 16208 16209 16210 [...] (11 flits)
Measured flits: 16197 16198 16199 16200 16201 16206 16207 16208 16209 16210 [...] (11 flits)
Class 0:
Remaining flits: 16197 16198 16199 16200 16201 16206 16207 16208 16209 16210 [...] (11 flits)
Measured flits: 16197 16198 16199 16200 16201 16206 16207 16208 16209 16210 [...] (11 flits)
Class 0:
Remaining flits: 16197 16198 16199 16200 16201 16206 16207 16208 16209 16210 [...] (11 flits)
Measured flits: 16197 16198 16199 16200 16201 16206 16207 16208 16209 16210 [...] (11 flits)
Class 0:
Remaining flits: 16197 16198 16199 16200 16201 16206 16207 16208 16209 16210 [...] (11 flits)
Measured flits: 16197 16198 16199 16200 16201 16206 16207 16208 16209 16210 [...] (11 flits)
Class 0:
Remaining flits: 16197 16198 16199 16200 16201 16206 16207 16208 16209 16210 [...] (11 flits)
Measured flits: 16197 16198 16199 16200 16201 16206 16207 16208 16209 16210 [...] (11 flits)
Class 0:
Remaining flits: 16197 16198 16199 16200 16201 16206 16207 16208 16209 16210 [...] (11 flits)
Measured flits: 16197 16198 16199 16200 16201 16206 16207 16208 16209 16210 [...] (11 flits)
Class 0:
Remaining flits: 16197 16198 16199 16200 16201 16206 16207 16208 16209 16210 [...] (11 flits)
Measured flits: 16197 16198 16199 16200 16201 16206 16207 16208 16209 16210 [...] (11 flits)
Class 0:
Remaining flits: 16197 16198 16199 16200 16201 16206 16207 16208 16209 16210 [...] (11 flits)
Measured flits: 16197 16198 16199 16200 16201 16206 16207 16208 16209 16210 [...] (11 flits)
Class 0:
Remaining flits: 16197 16198 16199 16200 16201 16206 16207 16208 16209 16210 [...] (11 flits)
Measured flits: 16197 16198 16199 16200 16201 16206 16207 16208 16209 16210 [...] (11 flits)
Class 0:
Remaining flits: 16197 16198 16199 16200 16201 16206 16207 16208 16209 16210 [...] (11 flits)
Measured flits: 16197 16198 16199 16200 16201 16206 16207 16208 16209 16210 [...] (11 flits)
Class 0:
Remaining flits: 16197 16198 16199 16200 16201 16206 16207 16208 16209 16210 [...] (11 flits)
Measured flits: 16197 16198 16199 16200 16201 16206 16207 16208 16209 16210 [...] (11 flits)
Class 0:
Remaining flits: 16197 16198 16199 16200 16201 16206 16207 16208 16209 16210 [...] (11 flits)
Measured flits: 16197 16198 16199 16200 16201 16206 16207 16208 16209 16210 [...] (11 flits)
Class 0:
Remaining flits: 16197 16198 16199 16200 16201 16206 16207 16208 16209 16210 [...] (11 flits)
Measured flits: 16197 16198 16199 16200 16201 16206 16207 16208 16209 16210 [...] (11 flits)
Class 0:
Remaining flits: 16197 16198 16199 16200 16201 16206 16207 16208 16209 16210 [...] (11 flits)
Measured flits: 16197 16198 16199 16200 16201 16206 16207 16208 16209 16210 [...] (11 flits)
Class 0:
Remaining flits: 16197 16198 16199 16200 16201 16206 16207 16208 16209 16210 [...] (11 flits)
Measured flits: 16197 16198 16199 16200 16201 16206 16207 16208 16209 16210 [...] (11 flits)
Class 0:
Remaining flits: 16197 16198 16199 16200 16201 16206 16207 16208 16209 16210 [...] (11 flits)
Measured flits: 16197 16198 16199 16200 16201 16206 16207 16208 16209 16210 [...] (11 flits)
Class 0:
Remaining flits: 16197 16198 16199 16200 16201 16206 16207 16208 16209 16210 [...] (11 flits)
Measured flits: 16197 16198 16199 16200 16201 16206 16207 16208 16209 16210 [...] (11 flits)
Class 0:
Remaining flits: 16197 16198 16199 16200 16201 16206 16207 16208 16209 16210 [...] (11 flits)
Measured flits: 16197 16198 16199 16200 16201 16206 16207 16208 16209 16210 [...] (11 flits)
Class 0:
Remaining flits: 16197 16198 16199 16200 16201 16206 16207 16208 16209 16210 [...] (11 flits)
Measured flits: 16197 16198 16199 16200 16201 16206 16207 16208 16209 16210 [...] (11 flits)
Class 0:
Remaining flits: 16197 16198 16199 16200 16201 16206 16207 16208 16209 16210 [...] (11 flits)
Measured flits: 16197 16198 16199 16200 16201 16206 16207 16208 16209 16210 [...] (11 flits)
Class 0:
Remaining flits: 16197 16198 16199 16200 16201 16206 16207 16208 16209 16210 [...] (11 flits)
Measured flits: 16197 16198 16199 16200 16201 16206 16207 16208 16209 16210 [...] (11 flits)
Class 0:
Remaining flits: 16197 16198 16199 16200 16201 16206 16207 16208 16209 16210 [...] (11 flits)
Measured flits: 16197 16198 16199 16200 16201 16206 16207 16208 16209 16210 [...] (11 flits)
Class 0:
Remaining flits: 16197 16198 16199 16200 16201 16206 16207 16208 16209 16210 [...] (11 flits)
Measured flits: 16197 16198 16199 16200 16201 16206 16207 16208 16209 16210 [...] (11 flits)
Class 0:
Remaining flits: 16197 16198 16199 16200 16201 16206 16207 16208 16209 16210 [...] (11 flits)
Measured flits: 16197 16198 16199 16200 16201 16206 16207 16208 16209 16210 [...] (11 flits)
Class 0:
Remaining flits: 16197 16198 16199 16200 16201 16206 16207 16208 16209 16210 [...] (11 flits)
Measured flits: 16197 16198 16199 16200 16201 16206 16207 16208 16209 16210 [...] (11 flits)
Class 0:
Remaining flits: 16197 16198 16199 16200 16201 16206 16207 16208 16209 16210 [...] (11 flits)
Measured flits: 16197 16198 16199 16200 16201 16206 16207 16208 16209 16210 [...] (11 flits)
Class 0:
Remaining flits: 16197 16198 16199 16200 16201 16206 16207 16208 16209 16210 [...] (11 flits)
Measured flits: 16197 16198 16199 16200 16201 16206 16207 16208 16209 16210 [...] (11 flits)
Class 0:
Remaining flits: 16197 16198 16199 16200 16201 16206 16207 16208 16209 16210 [...] (11 flits)
Measured flits: 16197 16198 16199 16200 16201 16206 16207 16208 16209 16210 [...] (11 flits)
Class 0:
Remaining flits: 16197 16198 16199 16200 16201 16206 16207 16208 16209 16210 [...] (11 flits)
Measured flits: 16197 16198 16199 16200 16201 16206 16207 16208 16209 16210 [...] (11 flits)
Class 0:
Remaining flits: 16197 16198 16199 16200 16201 16206 16207 16208 16209 16210 [...] (11 flits)
Measured flits: 16197 16198 16199 16200 16201 16206 16207 16208 16209 16210 [...] (11 flits)
Class 0:
Remaining flits: 16197 16198 16199 16200 16201 16206 16207 16208 16209 16210 [...] (11 flits)
Measured flits: 16197 16198 16199 16200 16201 16206 16207 16208 16209 16210 [...] (11 flits)
Class 0:
Remaining flits: 16197 16198 16199 16200 16201 16206 16207 16208 16209 16210 [...] (11 flits)
Measured flits: 16197 16198 16199 16200 16201 16206 16207 16208 16209 16210 [...] (11 flits)
Class 0:
Remaining flits: 16197 16198 16199 16200 16201 16206 16207 16208 16209 16210 [...] (11 flits)
Measured flits: 16197 16198 16199 16200 16201 16206 16207 16208 16209 16210 [...] (11 flits)
Class 0:
Remaining flits: 16197 16198 16199 16200 16201 16206 16207 16208 16209 16210 [...] (11 flits)
Measured flits: 16197 16198 16199 16200 16201 16206 16207 16208 16209 16210 [...] (11 flits)
Class 0:
Remaining flits: 16197 16198 16199 16200 16201 16206 16207 16208 16209 16210 [...] (11 flits)
Measured flits: 16197 16198 16199 16200 16201 16206 16207 16208 16209 16210 [...] (11 flits)
Class 0:
Remaining flits: 16197 16198 16199 16200 16201 16206 16207 16208 16209 16210 [...] (11 flits)
Measured flits: 16197 16198 16199 16200 16201 16206 16207 16208 16209 16210 [...] (11 flits)
Class 0:
Remaining flits: 16197 16198 16199 16200 16201 16206 16207 16208 16209 16210 [...] (11 flits)
Measured flits: 16197 16198 16199 16200 16201 16206 16207 16208 16209 16210 [...] (11 flits)
Class 0:
Remaining flits: 16197 16198 16199 16200 16201 16206 16207 16208 16209 16210 [...] (11 flits)
Measured flits: 16197 16198 16199 16200 16201 16206 16207 16208 16209 16210 [...] (11 flits)
Class 0:
Remaining flits: 16197 16198 16199 16200 16201 16206 16207 16208 16209 16210 [...] (11 flits)
Measured flits: 16197 16198 16199 16200 16201 16206 16207 16208 16209 16210 [...] (11 flits)
Class 0:
Remaining flits: 16197 16198 16199 16200 16201 16206 16207 16208 16209 16210 [...] (11 flits)
Measured flits: 16197 16198 16199 16200 16201 16206 16207 16208 16209 16210 [...] (11 flits)
Class 0:
Remaining flits: 16197 16198 16199 16200 16201 16206 16207 16208 16209 16210 [...] (11 flits)
Measured flits: 16197 16198 16199 16200 16201 16206 16207 16208 16209 16210 [...] (11 flits)
Class 0:
Remaining flits: 16197 16198 16199 16200 16201 16206 16207 16208 16209 16210 [...] (11 flits)
Measured flits: 16197 16198 16199 16200 16201 16206 16207 16208 16209 16210 [...] (11 flits)
Class 0:
Remaining flits: 16197 16198 16199 16200 16201 16206 16207 16208 16209 16210 [...] (11 flits)
Measured flits: 16197 16198 16199 16200 16201 16206 16207 16208 16209 16210 [...] (11 flits)
Class 0:
Remaining flits: 16197 16198 16199 16200 16201 16206 16207 16208 16209 16210 [...] (11 flits)
Measured flits: 16197 16198 16199 16200 16201 16206 16207 16208 16209 16210 [...] (11 flits)
Class 0:
Remaining flits: 16197 16198 16199 16200 16201 16206 16207 16208 16209 16210 [...] (11 flits)
Measured flits: 16197 16198 16199 16200 16201 16206 16207 16208 16209 16210 [...] (11 flits)
Class 0:
Remaining flits: 16197 16198 16199 16200 16201 16206 16207 16208 16209 16210 [...] (11 flits)
Measured flits: 16197 16198 16199 16200 16201 16206 16207 16208 16209 16210 [...] (11 flits)
Time taken is 7000 cycles
====== Traffic class 0 ======

Total number of flits generated = 16212, changed lanes = 16057
Overall minimum packet latency = 1532 (1 samples)
Overall average packet latency = 2428.85 (1 samples)
Overall maximum packet latency = 3346 (1 samples)
Overall minimum network latency = 96 (1 samples)
Overall average network latency = 128.338 (1 samples)
Overall maximum network latency = 190 (1 samples)
Overall minimum flit latency = 96 (1 samples)
Overall average flit latency = 128.39 (1 samples)
Overall maximum flit latency = 190 (1 samples)
Overall minimum fragmentation = 0 (1 samples)
Overall average fragmentation = 0 (1 samples)
Overall maximum fragmentation = 0 (1 samples)
Overall minimum injected packet rate = 0.166 (1 samples)
Overall average injected packet rate = 0.166479 (1 samples)
Overall maximum injected packet rate = 0.166667 (1 samples)
Overall minimum accepted packet rate = 0.149333 (1 samples)
Overall average accepted packet rate = 0.166542 (1 samples)
Overall maximum accepted packet rate = 0.177667 (1 samples)
Overall minimum injected flit rate = 0.166 (1 samples)
Overall average injected flit rate = 0.166479 (1 samples)
Overall maximum injected flit rate = 0.166667 (1 samples)
Overall minimum accepted flit rate = 0.149333 (1 samples)
Overall average accepted flit rate = 0.166542 (1 samples)
Overall maximum accepted flit rate = 0.177667 (1 samples)
Overall average injected packet size = 1 (1 samples)
Overall average accepted packet size = 1 (1 samples)
Overall average hops = 3.00677 (1 samples)
Overall throughput of the network (flits/cycle) = 5.40033
Overall throughput of the network (packets/cycle) = 5.40033
Total run time 4282.76
