make: Nothing to be done for `all'.
Master: Running timer....
Master: Running SRC....
BEGIN Configuration File: ./examples/bitrev
// Topology

topology = torus;
k = 4;
n = 2;

// Routing
routing_function = dim_order;

// Flow control
num_vcs     = 4;
vc_buf_size = 4;
wait_for_tail_credit = 0;

// Router architecture
vc_allocator = islip;
sw_allocator = islip;
alloc_iters  = 1;

credit_delay   = 1;
routing_delay  = 1;
vc_alloc_delay = 1;
sw_alloc_delay = 1;

input_speedup     = 1;
output_speedup    = 1;
internal_speedup  = 1.0;

vc_busy_when_full = 0;

// Traffic
traffic = uniform;
packet_size = 1;

// Simulation
sim_type = throughput;

injection_rate = 0.25;

END Configuration File: ./examples/bitrev
===== Time: 1000 =====
Class 0:
Minimum packet latency = 12
Average packet latency = 183.285
Maximum packet latency = 437
Minimum network latency = 13
Average network latency = 113.175
Maximum network latency = 214
Slowest packet = 464
Minimum flit latency = 13
Average flit latency = 113.175
Maximum flit latency = 214
Slowest flit = 1951
Minimum fragmentation = 0
Average fragmentation = 0
Maximum fragmentation = 0
Minimum injected packet rate = 0.179 (at node 4)
Average injected packet rate = 0.180625
Maximum injected packet rate = 0.182 (at node 13)
Minimum accepted packet rate = 0.147 (at node 14)
Average accepted packet rate = 0.159375
Maximum accepted packet rate = 0.177 (at node 15)
Minimum injected flit rate = 0.179 (at node 4)
Average injected flit rate = 0.180625
Maximum injected flit rate = 0.182 (at node 13)
Minimum accepted flit rate = 0.147 (at node 14)
Average accepted flit rate = 0.159375
Maximum accepted flit rate = 0.177 (at node 15)
Total number of injected packets = 2890
Total number of injected flits = 2890
Average injected packet length = 1
Total number of accepted packets = 2550
Total number of accepted flits = 2550
Average accepted packet length = 1
Total in-flight flits = 354 (0 measured)
===== Time: 2000 =====
Class 0:
Minimum packet latency = 12
Average packet latency = 345.037
Maximum packet latency = 789
Minimum network latency = 13
Average network latency = 120.966
Maximum network latency = 214
Slowest packet = 464
Minimum flit latency = 13
Average flit latency = 120.966
Maximum flit latency = 214
Slowest flit = 1951
Minimum fragmentation = 0
Average fragmentation = 0
Maximum fragmentation = 0
Minimum injected packet rate = 0.1725 (at node 0)
Average injected packet rate = 0.173594
Maximum injected packet rate = 0.1745 (at node 13)
Minimum accepted packet rate = 0.1505 (at node 6)
Average accepted packet rate = 0.163062
Maximum accepted packet rate = 0.172 (at node 11)
Minimum injected flit rate = 0.1725 (at node 0)
Average injected flit rate = 0.173594
Maximum injected flit rate = 0.1745 (at node 13)
Minimum accepted flit rate = 0.1505 (at node 6)
Average accepted flit rate = 0.163062
Maximum accepted flit rate = 0.172 (at node 11)
Total number of injected packets = 5555
Total number of injected flits = 5555
Average injected packet length = 1
Total number of accepted packets = 5218
Total number of accepted flits = 5218
Average accepted packet length = 1
Total in-flight flits = 350 (0 measured)
===== Time: 3000 =====
Class 0:
Minimum packet latency = 548
Average packet latency = 823.933
Maximum packet latency = 1188
Minimum network latency = 98
Average network latency = 127.706
Maximum network latency = 264
Slowest packet = 5191
Minimum flit latency = 98
Average flit latency = 127.706
Maximum flit latency = 264
Slowest flit = 6651
Minimum fragmentation = 0
Average fragmentation = 0
Maximum fragmentation = 0
Minimum injected packet rate = 0.165 (at node 1)
Average injected packet rate = 0.16625
Maximum injected packet rate = 0.168 (at node 9)
Minimum accepted packet rate = 0.134 (at node 2)
Average accepted packet rate = 0.166313
Maximum accepted packet rate = 0.202 (at node 7)
Minimum injected flit rate = 0.165 (at node 1)
Average injected flit rate = 0.16625
Maximum injected flit rate = 0.168 (at node 9)
Minimum accepted flit rate = 0.134 (at node 2)
Average accepted flit rate = 0.166313
Maximum accepted flit rate = 0.202 (at node 7)
Total number of injected packets = 2660
Total number of injected flits = 2660
Average injected packet length = 1
Total number of accepted packets = 2661
Total number of accepted flits = 2661
Average accepted packet length = 1
Total in-flight flits = 348 (0 measured)
===== Time: 4000 =====
Class 0:
Minimum packet latency = 892
Average packet latency = 1177.5
Maximum packet latency = 1480
Minimum network latency = 98
Average network latency = 128.639
Maximum network latency = 216
Slowest packet = 8233
Minimum flit latency = 98
Average flit latency = 128.584
Maximum flit latency = 216
Slowest flit = 9332
Minimum fragmentation = 0
Average fragmentation = 0
Maximum fragmentation = 0
Minimum injected packet rate = 0.166 (at node 0)
Average injected packet rate = 0.166437
Maximum injected packet rate = 0.167 (at node 1)
Minimum accepted packet rate = 0.148 (at node 4)
Average accepted packet rate = 0.1665
Maximum accepted packet rate = 0.186 (at node 9)
Minimum injected flit rate = 0.166 (at node 0)
Average injected flit rate = 0.166437
Maximum injected flit rate = 0.167 (at node 1)
Minimum accepted flit rate = 0.148 (at node 4)
Average accepted flit rate = 0.1665
Maximum accepted flit rate = 0.186 (at node 9)
Total number of injected packets = 2663
Total number of injected flits = 2663
Average injected packet length = 1
Total number of accepted packets = 2664
Total number of accepted flits = 2664
Average accepted packet length = 1
Total in-flight flits = 348 (348 measured)
===== Time: 5000 =====
Class 0:
Minimum packet latency = 892
Average packet latency = 1349
Maximum packet latency = 1850
Minimum network latency = 98
Average network latency = 128.156
Maximum network latency = 216
Slowest packet = 8233
Minimum flit latency = 98
Average flit latency = 128.16
Maximum flit latency = 216
Slowest flit = 9332
Minimum fragmentation = 0
Average fragmentation = 0
Maximum fragmentation = 0
Minimum injected packet rate = 0.1655 (at node 0)
Average injected packet rate = 0.166375
Maximum injected packet rate = 0.167 (at node 11)
Minimum accepted packet rate = 0.146 (at node 4)
Average accepted packet rate = 0.166063
Maximum accepted packet rate = 0.1795 (at node 8)
Minimum injected flit rate = 0.1655 (at node 0)
Average injected flit rate = 0.166375
Maximum injected flit rate = 0.167 (at node 11)
Minimum accepted flit rate = 0.146 (at node 4)
Average accepted flit rate = 0.166063
Maximum accepted flit rate = 0.1795 (at node 8)
Total number of injected packets = 5324
Total number of injected flits = 5324
Average injected packet length = 1
Total number of accepted packets = 5314
Total number of accepted flits = 5314
Average accepted packet length = 1
Total in-flight flits = 361 (361 measured)
===== Time: 6000 =====
Class 0:
Minimum packet latency = 892
Average packet latency = 1519.62
Maximum packet latency = 2164
Minimum network latency = 98
Average network latency = 128.013
Maximum network latency = 233
Slowest packet = 8233
Minimum flit latency = 98
Average flit latency = 128.023
Maximum flit latency = 233
Slowest flit = 13914
Minimum fragmentation = 0
Average fragmentation = 0
Maximum fragmentation = 0
Minimum injected packet rate = 0.165333 (at node 0)
Average injected packet rate = 0.166354
Maximum injected packet rate = 0.167 (at node 15)
Minimum accepted packet rate = 0.147 (at node 4)
Average accepted packet rate = 0.166229
Maximum accepted packet rate = 0.178 (at node 11)
Minimum injected flit rate = 0.165333 (at node 0)
Average injected flit rate = 0.166354
Maximum injected flit rate = 0.167 (at node 15)
Minimum accepted flit rate = 0.147 (at node 4)
Average accepted flit rate = 0.166229
Maximum accepted flit rate = 0.178 (at node 11)
Total number of injected packets = 7985
Total number of injected flits = 7985
Average injected packet length = 1
Total number of accepted packets = 7979
Total number of accepted flits = 7979
Average accepted packet length = 1
Total in-flight flits = 355 (355 measured)
Draining remaining packets ...
Class 0:
Remaining flits: 15800 15831 15840 15841 15844 15845 15854 15861 15862 15863 [...] (331 flits)
Measured flits: 15800 15831 15840 15841 15844 15845 15854 15861 15862 15863 [...] (331 flits)
Class 0:
Remaining flits: 15840 15841 15870 15871 15874 15878 15887 15892 15893 15894 [...] (303 flits)
Measured flits: 15840 15841 15870 15871 15874 15878 15887 15892 15893 15894 [...] (303 flits)
Class 0:
Remaining flits: 15887 15893 15895 15896 15899 15902 15903 15905 15910 15913 [...] (273 flits)
Measured flits: 15887 15893 15895 15896 15899 15902 15903 15905 15910 15913 [...] (273 flits)
Class 0:
Remaining flits: 15895 15896 15902 15913 15919 15925 15926 15932 15933 15938 [...] (247 flits)
Measured flits: 15895 15896 15902 15913 15919 15925 15926 15932 15933 15938 [...] (247 flits)
Class 0:
Remaining flits: 15895 15902 15919 15926 15948 15952 15963 15968 15970 15972 [...] (220 flits)
Measured flits: 15895 15902 15919 15926 15948 15952 15963 15968 15970 15972 [...] (220 flits)
Class 0:
Remaining flits: 15952 15968 15979 15980 15982 15991 16005 16006 16007 16008 [...] (193 flits)
Measured flits: 15952 15968 15979 15980 15982 15991 16005 16006 16007 16008 [...] (193 flits)
Class 0:
Remaining flits: 15979 15991 16006 16007 16014 16017 16019 16020 16021 16022 [...] (172 flits)
Measured flits: 15979 15991 16006 16007 16014 16017 16019 16020 16021 16022 [...] (172 flits)
Class 0:
Remaining flits: 16006 16007 16014 16020 16024 16027 16028 16044 16050 16053 [...] (146 flits)
Measured flits: 16006 16007 16014 16020 16024 16027 16028 16044 16050 16053 [...] (146 flits)
Class 0:
Remaining flits: 16007 16020 16044 16050 16053 16056 16061 16065 16067 16069 [...] (124 flits)
Measured flits: 16007 16020 16044 16050 16053 16056 16061 16065 16067 16069 [...] (124 flits)
Class 0:
Remaining flits: 16007 16044 16053 16065 16067 16087 16093 16097 16100 16102 [...] (91 flits)
Measured flits: 16007 16044 16053 16065 16067 16087 16093 16097 16100 16102 [...] (91 flits)
Class 0:
Remaining flits: 16065 16067 16087 16093 16097 16100 16104 16109 16114 16115 [...] (67 flits)
Measured flits: 16065 16067 16087 16093 16097 16100 16104 16109 16114 16115 [...] (67 flits)
Class 0:
Remaining flits: 16067 16100 16114 16115 16124 16126 16135 16136 16140 16141 [...] (45 flits)
Measured flits: 16067 16100 16114 16115 16124 16126 16135 16136 16140 16141 [...] (45 flits)
Class 0:
Remaining flits: 16124 16135 16136 16140 16154 16157 16158 16159 16173 16175 [...] (32 flits)
Measured flits: 16124 16135 16136 16140 16154 16157 16158 16159 16173 16175 [...] (32 flits)
Class 0:
Remaining flits: 16124 16135 16136 16173 16176 16186 16188 16192 16195 16196 [...] (21 flits)
Measured flits: 16124 16135 16136 16173 16176 16186 16188 16192 16195 16196 [...] (21 flits)
Class 0:
Remaining flits: 16173 16176 16186 16192 16195 16196 16200 16201 16203 16204 [...] (15 flits)
Measured flits: 16173 16176 16186 16192 16195 16196 16200 16201 16203 16204 [...] (15 flits)
Class 0:
Remaining flits: 16195 16196 16200 16201 16203 16205 16206 16207 16210 16211 (10 flits)
Measured flits: 16195 16196 16200 16201 16203 16205 16206 16207 16210 16211 (10 flits)
Class 0:
Remaining flits: 16196 16200 16201 16203 16205 16206 16207 16210 16211 (9 flits)
Measured flits: 16196 16200 16201 16203 16205 16206 16207 16210 16211 (9 flits)
Class 0:
Remaining flits: 16196 16200 16201 16203 16205 16206 16207 16210 16211 (9 flits)
Measured flits: 16196 16200 16201 16203 16205 16206 16207 16210 16211 (9 flits)
Class 0:
Remaining flits: 16196 16200 16201 16203 16205 16206 16207 16210 16211 (9 flits)
Measured flits: 16196 16200 16201 16203 16205 16206 16207 16210 16211 (9 flits)
Class 0:
Remaining flits: 16196 16200 16201 16203 16205 16206 16207 16210 16211 (9 flits)
Measured flits: 16196 16200 16201 16203 16205 16206 16207 16210 16211 (9 flits)
Class 0:
Remaining flits: 16196 16200 16201 16203 16205 16206 16207 16210 16211 (9 flits)
Measured flits: 16196 16200 16201 16203 16205 16206 16207 16210 16211 (9 flits)
Class 0:
Remaining flits: 16196 16200 16201 16203 16205 16206 16207 16210 16211 (9 flits)
Measured flits: 16196 16200 16201 16203 16205 16206 16207 16210 16211 (9 flits)
Class 0:
Remaining flits: 16196 16200 16201 16203 16205 16206 16207 16210 16211 (9 flits)
Measured flits: 16196 16200 16201 16203 16205 16206 16207 16210 16211 (9 flits)
Class 0:
Remaining flits: 16196 16200 16201 16203 16205 16206 16207 16210 16211 (9 flits)
Measured flits: 16196 16200 16201 16203 16205 16206 16207 16210 16211 (9 flits)
Class 0:
Remaining flits: 16196 16200 16201 16203 16205 16206 16207 16210 16211 (9 flits)
Measured flits: 16196 16200 16201 16203 16205 16206 16207 16210 16211 (9 flits)
Class 0:
Remaining flits: 16196 16200 16201 16203 16205 16206 16207 16210 16211 (9 flits)
Measured flits: 16196 16200 16201 16203 16205 16206 16207 16210 16211 (9 flits)
Class 0:
Remaining flits: 16196 16200 16201 16203 16205 16206 16207 16210 16211 (9 flits)
Measured flits: 16196 16200 16201 16203 16205 16206 16207 16210 16211 (9 flits)
Class 0:
Remaining flits: 16196 16200 16201 16203 16205 16206 16207 16210 16211 (9 flits)
Measured flits: 16196 16200 16201 16203 16205 16206 16207 16210 16211 (9 flits)
Class 0:
Remaining flits: 16196 16200 16201 16203 16205 16206 16207 16210 16211 (9 flits)
Measured flits: 16196 16200 16201 16203 16205 16206 16207 16210 16211 (9 flits)
Class 0:
Remaining flits: 16196 16200 16201 16203 16205 16206 16207 16210 16211 (9 flits)
Measured flits: 16196 16200 16201 16203 16205 16206 16207 16210 16211 (9 flits)
Class 0:
Remaining flits: 16196 16200 16201 16203 16205 16206 16207 16210 16211 (9 flits)
Measured flits: 16196 16200 16201 16203 16205 16206 16207 16210 16211 (9 flits)
Class 0:
Remaining flits: 16196 16200 16201 16203 16205 16206 16207 16210 16211 (9 flits)
Measured flits: 16196 16200 16201 16203 16205 16206 16207 16210 16211 (9 flits)
Class 0:
Remaining flits: 16196 16200 16201 16203 16205 16206 16207 16210 16211 (9 flits)
Measured flits: 16196 16200 16201 16203 16205 16206 16207 16210 16211 (9 flits)
Class 0:
Remaining flits: 16196 16200 16201 16203 16205 16206 16207 16210 16211 (9 flits)
Measured flits: 16196 16200 16201 16203 16205 16206 16207 16210 16211 (9 flits)
Class 0:
Remaining flits: 16196 16200 16201 16203 16205 16206 16207 16210 16211 (9 flits)
Measured flits: 16196 16200 16201 16203 16205 16206 16207 16210 16211 (9 flits)
Class 0:
Remaining flits: 16196 16200 16201 16203 16205 16206 16207 16210 16211 (9 flits)
Measured flits: 16196 16200 16201 16203 16205 16206 16207 16210 16211 (9 flits)
Class 0:
Remaining flits: 16196 16200 16201 16203 16205 16206 16207 16210 16211 (9 flits)
Measured flits: 16196 16200 16201 16203 16205 16206 16207 16210 16211 (9 flits)
Class 0:
Remaining flits: 16196 16200 16201 16203 16205 16206 16207 16210 16211 (9 flits)
Measured flits: 16196 16200 16201 16203 16205 16206 16207 16210 16211 (9 flits)
Class 0:
Remaining flits: 16196 16200 16201 16203 16205 16206 16207 16210 16211 (9 flits)
Measured flits: 16196 16200 16201 16203 16205 16206 16207 16210 16211 (9 flits)
Class 0:
Remaining flits: 16196 16200 16201 16203 16205 16206 16207 16210 16211 (9 flits)
Measured flits: 16196 16200 16201 16203 16205 16206 16207 16210 16211 (9 flits)
Class 0:
Remaining flits: 16196 16200 16201 16203 16205 16206 16207 16210 16211 (9 flits)
Measured flits: 16196 16200 16201 16203 16205 16206 16207 16210 16211 (9 flits)
Class 0:
Remaining flits: 16196 16200 16201 16203 16205 16206 16207 16210 16211 (9 flits)
Measured flits: 16196 16200 16201 16203 16205 16206 16207 16210 16211 (9 flits)
Class 0:
Remaining flits: 16196 16200 16201 16203 16205 16206 16207 16210 16211 (9 flits)
Measured flits: 16196 16200 16201 16203 16205 16206 16207 16210 16211 (9 flits)
Class 0:
Remaining flits: 16196 16200 16201 16203 16205 16206 16207 16210 16211 (9 flits)
Measured flits: 16196 16200 16201 16203 16205 16206 16207 16210 16211 (9 flits)
Class 0:
Remaining flits: 16196 16200 16201 16203 16205 16206 16207 16210 16211 (9 flits)
Measured flits: 16196 16200 16201 16203 16205 16206 16207 16210 16211 (9 flits)
Class 0:
Remaining flits: 16196 16200 16201 16203 16205 16206 16207 16210 16211 (9 flits)
Measured flits: 16196 16200 16201 16203 16205 16206 16207 16210 16211 (9 flits)
Class 0:
Remaining flits: 16196 16200 16201 16203 16205 16206 16207 16210 16211 (9 flits)
Measured flits: 16196 16200 16201 16203 16205 16206 16207 16210 16211 (9 flits)
Class 0:
Remaining flits: 16196 16200 16201 16203 16205 16206 16207 16210 16211 (9 flits)
Measured flits: 16196 16200 16201 16203 16205 16206 16207 16210 16211 (9 flits)
Class 0:
Remaining flits: 16196 16200 16201 16203 16205 16206 16207 16210 16211 (9 flits)
Measured flits: 16196 16200 16201 16203 16205 16206 16207 16210 16211 (9 flits)
Class 0:
Remaining flits: 16196 16200 16201 16203 16205 16206 16207 16210 16211 (9 flits)
Measured flits: 16196 16200 16201 16203 16205 16206 16207 16210 16211 (9 flits)
Class 0:
Remaining flits: 16196 16200 16201 16203 16205 16206 16207 16210 16211 (9 flits)
Measured flits: 16196 16200 16201 16203 16205 16206 16207 16210 16211 (9 flits)
Class 0:
Remaining flits: 16196 16200 16201 16203 16205 16206 16207 16210 16211 (9 flits)
Measured flits: 16196 16200 16201 16203 16205 16206 16207 16210 16211 (9 flits)
Class 0:
Remaining flits: 16196 16200 16201 16203 16205 16206 16207 16210 16211 (9 flits)
Measured flits: 16196 16200 16201 16203 16205 16206 16207 16210 16211 (9 flits)
Class 0:
Remaining flits: 16196 16200 16201 16203 16205 16206 16207 16210 16211 (9 flits)
Measured flits: 16196 16200 16201 16203 16205 16206 16207 16210 16211 (9 flits)
Class 0:
Remaining flits: 16196 16200 16201 16203 16205 16206 16207 16210 16211 (9 flits)
Measured flits: 16196 16200 16201 16203 16205 16206 16207 16210 16211 (9 flits)
Class 0:
Remaining flits: 16196 16200 16201 16203 16205 16206 16207 16210 16211 (9 flits)
Measured flits: 16196 16200 16201 16203 16205 16206 16207 16210 16211 (9 flits)
Class 0:
Remaining flits: 16196 16200 16201 16203 16205 16206 16207 16210 16211 (9 flits)
Measured flits: 16196 16200 16201 16203 16205 16206 16207 16210 16211 (9 flits)
Class 0:
Remaining flits: 16196 16200 16201 16203 16205 16206 16207 16210 16211 (9 flits)
Measured flits: 16196 16200 16201 16203 16205 16206 16207 16210 16211 (9 flits)
Class 0:
Remaining flits: 16196 16200 16201 16203 16205 16206 16207 16210 16211 (9 flits)
Measured flits: 16196 16200 16201 16203 16205 16206 16207 16210 16211 (9 flits)
Class 0:
Remaining flits: 16196 16200 16201 16203 16205 16206 16207 16210 16211 (9 flits)
Measured flits: 16196 16200 16201 16203 16205 16206 16207 16210 16211 (9 flits)
Class 0:
Remaining flits: 16196 16200 16201 16203 16205 16206 16207 16210 16211 (9 flits)
Measured flits: 16196 16200 16201 16203 16205 16206 16207 16210 16211 (9 flits)
Class 0:
Remaining flits: 16196 16200 16201 16203 16205 16206 16207 16210 16211 (9 flits)
Measured flits: 16196 16200 16201 16203 16205 16206 16207 16210 16211 (9 flits)
Class 0:
Remaining flits: 16196 16200 16201 16203 16205 16206 16207 16210 16211 (9 flits)
Measured flits: 16196 16200 16201 16203 16205 16206 16207 16210 16211 (9 flits)
Class 0:
Remaining flits: 16196 16200 16201 16203 16205 16206 16207 16210 16211 (9 flits)
Measured flits: 16196 16200 16201 16203 16205 16206 16207 16210 16211 (9 flits)
Class 0:
Remaining flits: 16196 16200 16201 16203 16205 16206 16207 16210 16211 (9 flits)
Measured flits: 16196 16200 16201 16203 16205 16206 16207 16210 16211 (9 flits)
Class 0:
Remaining flits: 16196 16200 16201 16203 16205 16206 16207 16210 16211 (9 flits)
Measured flits: 16196 16200 16201 16203 16205 16206 16207 16210 16211 (9 flits)
Class 0:
Remaining flits: 16196 16200 16201 16203 16205 16206 16207 16210 16211 (9 flits)
Measured flits: 16196 16200 16201 16203 16205 16206 16207 16210 16211 (9 flits)
Class 0:
Remaining flits: 16196 16200 16201 16203 16205 16206 16207 16210 16211 (9 flits)
Measured flits: 16196 16200 16201 16203 16205 16206 16207 16210 16211 (9 flits)
Class 0:
Remaining flits: 16196 16200 16201 16203 16205 16206 16207 16210 16211 (9 flits)
Measured flits: 16196 16200 16201 16203 16205 16206 16207 16210 16211 (9 flits)
Class 0:
Remaining flits: 16196 16200 16201 16203 16205 16206 16207 16210 16211 (9 flits)
Measured flits: 16196 16200 16201 16203 16205 16206 16207 16210 16211 (9 flits)
Class 0:
Remaining flits: 16196 16200 16201 16203 16205 16206 16207 16210 16211 (9 flits)
Measured flits: 16196 16200 16201 16203 16205 16206 16207 16210 16211 (9 flits)
Class 0:
Remaining flits: 16196 16200 16201 16203 16205 16206 16207 16210 16211 (9 flits)
Measured flits: 16196 16200 16201 16203 16205 16206 16207 16210 16211 (9 flits)
Class 0:
Remaining flits: 16196 16200 16201 16203 16205 16206 16207 16210 16211 (9 flits)
Measured flits: 16196 16200 16201 16203 16205 16206 16207 16210 16211 (9 flits)
Class 0:
Remaining flits: 16196 16200 16201 16203 16205 16206 16207 16210 16211 (9 flits)
Measured flits: 16196 16200 16201 16203 16205 16206 16207 16210 16211 (9 flits)
Class 0:
Remaining flits: 16196 16200 16201 16203 16205 16206 16207 16210 16211 (9 flits)
Measured flits: 16196 16200 16201 16203 16205 16206 16207 16210 16211 (9 flits)
Class 0:
Remaining flits: 16196 16200 16201 16203 16205 16206 16207 16210 16211 (9 flits)
Measured flits: 16196 16200 16201 16203 16205 16206 16207 16210 16211 (9 flits)
Class 0:
Remaining flits: 16196 16200 16201 16203 16205 16206 16207 16210 16211 (9 flits)
Measured flits: 16196 16200 16201 16203 16205 16206 16207 16210 16211 (9 flits)
Class 0:
Remaining flits: 16196 16200 16201 16203 16205 16206 16207 16210 16211 (9 flits)
Measured flits: 16196 16200 16201 16203 16205 16206 16207 16210 16211 (9 flits)
Class 0:
Remaining flits: 16196 16200 16201 16203 16205 16206 16207 16210 16211 (9 flits)
Measured flits: 16196 16200 16201 16203 16205 16206 16207 16210 16211 (9 flits)
Class 0:
Remaining flits: 16196 16200 16201 16203 16205 16206 16207 16210 16211 (9 flits)
Measured flits: 16196 16200 16201 16203 16205 16206 16207 16210 16211 (9 flits)
Class 0:
Remaining flits: 16196 16200 16201 16203 16205 16206 16207 16210 16211 (9 flits)
Measured flits: 16196 16200 16201 16203 16205 16206 16207 16210 16211 (9 flits)
Class 0:
Remaining flits: 16196 16200 16201 16203 16205 16206 16207 16210 16211 (9 flits)
Measured flits: 16196 16200 16201 16203 16205 16206 16207 16210 16211 (9 flits)
Class 0:
Remaining flits: 16196 16200 16201 16203 16205 16206 16207 16210 16211 (9 flits)
Measured flits: 16196 16200 16201 16203 16205 16206 16207 16210 16211 (9 flits)
Class 0:
Remaining flits: 16196 16200 16201 16203 16205 16206 16207 16210 16211 (9 flits)
Measured flits: 16196 16200 16201 16203 16205 16206 16207 16210 16211 (9 flits)
Class 0:
Remaining flits: 16196 16200 16201 16203 16205 16206 16207 16210 16211 (9 flits)
Measured flits: 16196 16200 16201 16203 16205 16206 16207 16210 16211 (9 flits)
Class 0:
Remaining flits: 16196 16200 16201 16203 16205 16206 16207 16210 16211 (9 flits)
Measured flits: 16196 16200 16201 16203 16205 16206 16207 16210 16211 (9 flits)
Class 0:
Remaining flits: 16196 16200 16201 16203 16205 16206 16207 16210 16211 (9 flits)
Measured flits: 16196 16200 16201 16203 16205 16206 16207 16210 16211 (9 flits)
Class 0:
Remaining flits: 16196 16200 16201 16203 16205 16206 16207 16210 16211 (9 flits)
Measured flits: 16196 16200 16201 16203 16205 16206 16207 16210 16211 (9 flits)
Class 0:
Remaining flits: 16196 16200 16201 16203 16205 16206 16207 16210 16211 (9 flits)
Measured flits: 16196 16200 16201 16203 16205 16206 16207 16210 16211 (9 flits)
Class 0:
Remaining flits: 16196 16200 16201 16203 16205 16206 16207 16210 16211 (9 flits)
Measured flits: 16196 16200 16201 16203 16205 16206 16207 16210 16211 (9 flits)
Class 0:
Remaining flits: 16196 16200 16201 16203 16205 16206 16207 16210 16211 (9 flits)
Measured flits: 16196 16200 16201 16203 16205 16206 16207 16210 16211 (9 flits)
Class 0:
Remaining flits: 16196 16200 16201 16203 16205 16206 16207 16210 16211 (9 flits)
Measured flits: 16196 16200 16201 16203 16205 16206 16207 16210 16211 (9 flits)
Class 0:
Remaining flits: 16196 16200 16201 16203 16205 16206 16207 16210 16211 (9 flits)
Measured flits: 16196 16200 16201 16203 16205 16206 16207 16210 16211 (9 flits)
Class 0:
Remaining flits: 16196 16200 16201 16203 16205 16206 16207 16210 16211 (9 flits)
Measured flits: 16196 16200 16201 16203 16205 16206 16207 16210 16211 (9 flits)
Class 0:
Remaining flits: 16196 16200 16201 16203 16205 16206 16207 16210 16211 (9 flits)
Measured flits: 16196 16200 16201 16203 16205 16206 16207 16210 16211 (9 flits)
Class 0:
Remaining flits: 16196 16200 16201 16203 16205 16206 16207 16210 16211 (9 flits)
Measured flits: 16196 16200 16201 16203 16205 16206 16207 16210 16211 (9 flits)
Class 0:
Remaining flits: 16196 16200 16201 16203 16205 16206 16207 16210 16211 (9 flits)
Measured flits: 16196 16200 16201 16203 16205 16206 16207 16210 16211 (9 flits)
Class 0:
Remaining flits: 16196 16200 16201 16203 16205 16206 16207 16210 16211 (9 flits)
Measured flits: 16196 16200 16201 16203 16205 16206 16207 16210 16211 (9 flits)
Class 0:
Remaining flits: 16196 16200 16201 16203 16205 16206 16207 16210 16211 (9 flits)
Measured flits: 16196 16200 16201 16203 16205 16206 16207 16210 16211 (9 flits)
Class 0:
Remaining flits: 16196 16200 16201 16203 16205 16206 16207 16210 16211 (9 flits)
Measured flits: 16196 16200 16201 16203 16205 16206 16207 16210 16211 (9 flits)
Class 0:
Remaining flits: 16196 16200 16201 16203 16205 16206 16207 16210 16211 (9 flits)
Measured flits: 16196 16200 16201 16203 16205 16206 16207 16210 16211 (9 flits)
Time taken is 7000 cycles
====== Traffic class 0 ======

Total number of flits generated = 16213, changed lanes = 16026
Overall minimum packet latency = 892 (1 samples)
Overall average packet latency = 1541.97 (1 samples)
Overall maximum packet latency = 2214 (1 samples)
Overall minimum network latency = 98 (1 samples)
Overall average network latency = 128.18 (1 samples)
Overall maximum network latency = 233 (1 samples)
Overall minimum flit latency = 98 (1 samples)
Overall average flit latency = 128.182 (1 samples)
Overall maximum flit latency = 233 (1 samples)
Overall minimum fragmentation = 0 (1 samples)
Overall average fragmentation = 0 (1 samples)
Overall maximum fragmentation = 0 (1 samples)
Overall minimum injected packet rate = 0.165333 (1 samples)
Overall average injected packet rate = 0.166354 (1 samples)
Overall maximum injected packet rate = 0.167 (1 samples)
Overall minimum accepted packet rate = 0.147 (1 samples)
Overall average accepted packet rate = 0.166229 (1 samples)
Overall maximum accepted packet rate = 0.178 (1 samples)
Overall minimum injected flit rate = 0.165333 (1 samples)
Overall average injected flit rate = 0.166354 (1 samples)
Overall maximum injected flit rate = 0.167 (1 samples)
Overall minimum accepted flit rate = 0.147 (1 samples)
Overall average accepted flit rate = 0.166229 (1 samples)
Overall maximum accepted flit rate = 0.178 (1 samples)
Overall average injected packet size = 1 (1 samples)
Overall average accepted packet size = 1 (1 samples)
Overall average hops = 3.00338 (1 samples)
Overall throughput of the network (flits/cycle) = 5.40133
Overall throughput of the network (packets/cycle) = 5.40133
Total run time 4099.48
