make: Nothing to be done for 'all'.
Master: Running timer....
Master: Running SRC....
BEGIN Configuration File: ./examples/bitrev
// Topology

topology = mesh;
k = 4;
n = 2;

// Routing
routing_function = dor;

// Flow control
num_vcs     = 4;
vc_buf_size = 4;
wait_for_tail_credit = 0;

// Router architecture
vc_allocator = islip;
sw_allocator = islip;
alloc_iters  = 1;

credit_delay   = 1;
routing_delay  = 1;
vc_alloc_delay = 1;
sw_alloc_delay = 1;

input_speedup     = 1;
output_speedup    = 1;
internal_speedup  = 1.0;

vc_busy_when_full = 0;

// Traffic
traffic = bitcomp;
packet_size = 1;

// Simulation
sim_type = throughput;

injection_rate = 0.05;

END Configuration File: ./examples/bitrev
===== Time: 10000 =====
Class 0:
Minimum packet latency = 30
Average packet latency = 62.4925
Maximum packet latency = 143
Minimum network latency = 31
Average network latency = 63.4925
Maximum network latency = 144
Slowest packet = 65
Minimum flit latency = 31
Average flit latency = 63.4925
Maximum flit latency = 144
Slowest flit = 65
Minimum fragmentation = 0
Average fragmentation = 0
Maximum fragmentation = 0
Minimum injected packet rate = 0.0458 (at node 0)
Average injected packet rate = 0.0494687
Maximum injected packet rate = 0.0515 (at node 12)
Minimum accepted packet rate = 0.0457 (at node 15)
Average accepted packet rate = 0.049225
Maximum accepted packet rate = 0.0512 (at node 3)
Minimum injected flit rate = 0.0458 (at node 0)
Average injected flit rate = 0.0494687
Maximum injected flit rate = 0.0515 (at node 12)
Minimum accepted flit rate = 0.0457 (at node 15)
Average accepted flit rate = 0.049225
Maximum accepted flit rate = 0.0512 (at node 3)
Total number of injected packets = 7915
Total number of injected flits = 7915
Average injected packet length = 1
Total number of accepted packets = 7876
Total number of accepted flits = 7876
Average accepted packet length = 1
Total in-flight flits = 39 (0 measured)
===== Time: 20000 =====
Class 0:
Minimum packet latency = 30
Average packet latency = 62.8553
Maximum packet latency = 165
Minimum network latency = 31
Average network latency = 63.8553
Maximum network latency = 166
Slowest packet = 10301
Minimum flit latency = 31
Average flit latency = 63.8553
Maximum flit latency = 166
Slowest flit = 10301
Minimum fragmentation = 0
Average fragmentation = 0
Maximum fragmentation = 0
Minimum injected packet rate = 0.0483 (at node 8)
Average injected packet rate = 0.0500375
Maximum injected packet rate = 0.0526 (at node 12)
Minimum accepted packet rate = 0.0481 (at node 7)
Average accepted packet rate = 0.0498938
Maximum accepted packet rate = 0.0524 (at node 3)
Minimum injected flit rate = 0.0483 (at node 8)
Average injected flit rate = 0.0500375
Maximum injected flit rate = 0.0526 (at node 12)
Minimum accepted flit rate = 0.0481 (at node 7)
Average accepted flit rate = 0.0498938
Maximum accepted flit rate = 0.0524 (at node 3)
Total number of injected packets = 16012
Total number of injected flits = 16012
Average injected packet length = 1
Total number of accepted packets = 15966
Total number of accepted flits = 15966
Average accepted packet length = 1
Total in-flight flits = 46 (0 measured)
===== Time: 30000 =====
Class 0:
Minimum packet latency = 30
Average packet latency = 63.0567
Maximum packet latency = 136
Minimum network latency = 31
Average network latency = 64.0567
Maximum network latency = 137
Slowest packet = 17211
Minimum flit latency = 31
Average flit latency = 64.0567
Maximum flit latency = 137
Slowest flit = 17211
Minimum fragmentation = 0
Average fragmentation = 0
Maximum fragmentation = 0
Minimum injected packet rate = 0.045 (at node 15)
Average injected packet rate = 0.0495875
Maximum injected packet rate = 0.0541 (at node 13)
Minimum accepted packet rate = 0.0448 (at node 0)
Average accepted packet rate = 0.0496188
Maximum accepted packet rate = 0.0544 (at node 2)
Minimum injected flit rate = 0.045 (at node 15)
Average injected flit rate = 0.0495875
Maximum injected flit rate = 0.0541 (at node 13)
Minimum accepted flit rate = 0.0448 (at node 0)
Average accepted flit rate = 0.0496188
Maximum accepted flit rate = 0.0544 (at node 2)
Total number of injected packets = 7934
Total number of injected flits = 7934
Average injected packet length = 1
Total number of accepted packets = 7939
Total number of accepted flits = 7939
Average accepted packet length = 1
Total in-flight flits = 41 (0 measured)
===== Time: 40000 =====
Class 0:
Minimum packet latency = 30
Average packet latency = 63.0075
Maximum packet latency = 148
Minimum network latency = 31
Average network latency = 64.0075
Maximum network latency = 149
Slowest packet = 31803
Minimum flit latency = 31
Average flit latency = 63.996
Maximum flit latency = 149
Slowest flit = 27959
Minimum fragmentation = 0
Average fragmentation = 0
Maximum fragmentation = 0
Minimum injected packet rate = 0.0473 (at node 6)
Average injected packet rate = 0.0501938
Maximum injected packet rate = 0.0543 (at node 14)
Minimum accepted packet rate = 0.0473 (at node 9)
Average accepted packet rate = 0.0501187
Maximum accepted packet rate = 0.0538 (at node 1)
Minimum injected flit rate = 0.0473 (at node 6)
Average injected flit rate = 0.0501938
Maximum injected flit rate = 0.0543 (at node 14)
Minimum accepted flit rate = 0.0473 (at node 9)
Average accepted flit rate = 0.0501187
Maximum accepted flit rate = 0.0538 (at node 1)
Total number of injected packets = 8031
Total number of injected flits = 8031
Average injected packet length = 1
Total number of accepted packets = 8019
Total number of accepted flits = 8019
Average accepted packet length = 1
Total in-flight flits = 53 (53 measured)
===== Time: 50000 =====
Class 0:
Minimum packet latency = 29
Average packet latency = 63.2396
Maximum packet latency = 148
Minimum network latency = 30
Average network latency = 64.2396
Maximum network latency = 149
Slowest packet = 31803
Minimum flit latency = 30
Average flit latency = 64.2333
Maximum flit latency = 149
Slowest flit = 27959
Minimum fragmentation = 0
Average fragmentation = 0
Maximum fragmentation = 0
Minimum injected packet rate = 0.04815 (at node 10)
Average injected packet rate = 0.0503
Maximum injected packet rate = 0.05345 (at node 14)
Minimum accepted packet rate = 0.0482 (at node 5)
Average accepted packet rate = 0.0502406
Maximum accepted packet rate = 0.05335 (at node 1)
Minimum injected flit rate = 0.04815 (at node 10)
Average injected flit rate = 0.0503
Maximum injected flit rate = 0.05345 (at node 14)
Minimum accepted flit rate = 0.0482 (at node 5)
Average accepted flit rate = 0.0502406
Maximum accepted flit rate = 0.05335 (at node 1)
Total number of injected packets = 16096
Total number of injected flits = 16096
Average injected packet length = 1
Total number of accepted packets = 16077
Total number of accepted flits = 16077
Average accepted packet length = 1
Total in-flight flits = 60 (60 measured)
===== Time: 60000 =====
Class 0:
Minimum packet latency = 29
Average packet latency = 63.0944
Maximum packet latency = 148
Minimum network latency = 30
Average network latency = 64.0944
Maximum network latency = 149
Slowest packet = 31803
Minimum flit latency = 30
Average flit latency = 64.0904
Maximum flit latency = 149
Slowest flit = 27959
Minimum fragmentation = 0
Average fragmentation = 0
Maximum fragmentation = 0
Minimum injected packet rate = 0.0482 (at node 10)
Average injected packet rate = 0.0501896
Maximum injected packet rate = 0.0528667 (at node 14)
Minimum accepted packet rate = 0.0482 (at node 5)
Average accepted packet rate = 0.0501542
Maximum accepted packet rate = 0.0528333 (at node 1)
Minimum injected flit rate = 0.0482 (at node 10)
Average injected flit rate = 0.0501896
Maximum injected flit rate = 0.0528667 (at node 14)
Minimum accepted flit rate = 0.0482 (at node 5)
Average accepted flit rate = 0.0501542
Maximum accepted flit rate = 0.0528333 (at node 1)
Total number of injected packets = 24091
Total number of injected flits = 24091
Average injected packet length = 1
Total number of accepted packets = 24074
Total number of accepted flits = 24074
Average accepted packet length = 1
Total in-flight flits = 58 (58 measured)
Draining remaining packets ...
Class 0:
Remaining flits: 47969 47974 47977 47979 47980 47982 47985 47987 47993 47995 [...] (48 flits)
Measured flits: 47969 47974 47977 47979 47980 47982 47985 47987 47993 47995 [...] (48 flits)
Class 0:
Remaining flits: 47979 47980 47982 47985 47987 47993 47996 48003 48004 48005 [...] (38 flits)
Measured flits: 47979 47980 47982 47985 47987 47993 47996 48003 48004 48005 [...] (38 flits)
Class 0:
Remaining flits: 47985 47987 47993 47996 48003 48004 48005 48009 48010 48011 [...] (32 flits)
Measured flits: 47985 47987 47993 47996 48003 48004 48005 48009 48010 48011 [...] (32 flits)
Class 0:
Remaining flits: 47996 48003 48004 48005 48013 48015 48017 48021 48022 48023 [...] (20 flits)
Measured flits: 47996 48003 48004 48005 48013 48015 48017 48021 48022 48023 [...] (20 flits)
Class 0:
Remaining flits: 48004 48005 48013 48015 48017 48021 48022 48023 48024 48028 [...] (15 flits)
Measured flits: 48004 48005 48013 48015 48017 48021 48022 48023 48024 48028 [...] (15 flits)
Class 0:
Remaining flits: 48017 48021 48022 48023 48024 48028 48029 48033 (8 flits)
Measured flits: 48017 48021 48022 48023 48024 48028 48029 48033 (8 flits)
Class 0:
Remaining flits: 48022 48023 48024 48028 48033 (5 flits)
Measured flits: 48022 48023 48024 48028 48033 (5 flits)
Class 0:
Remaining flits: 48023 (1 flits)
Measured flits: 48023 (1 flits)
Class 0:
Remaining flits: (0 flits)
Measured flits: (0 flits)
Class 0:
Remaining flits: (0 flits)
Measured flits: (0 flits)
Class 0:
Remaining flits: (0 flits)
Measured flits: (0 flits)
Class 0:
Remaining flits: (0 flits)
Measured flits: (0 flits)
Class 0:
Remaining flits: (0 flits)
Measured flits: (0 flits)
Class 0:
Remaining flits: (0 flits)
Measured flits: (0 flits)
Class 0:
Remaining flits: (0 flits)
Measured flits: (0 flits)
Class 0:
Remaining flits: (0 flits)
Measured flits: (0 flits)
Class 0:
Remaining flits: (0 flits)
Measured flits: (0 flits)
Class 0:
Remaining flits: (0 flits)
Measured flits: (0 flits)
Class 0:
Remaining flits: (0 flits)
Measured flits: (0 flits)
Class 0:
Remaining flits: (0 flits)
Measured flits: (0 flits)
Class 0:
Remaining flits: (0 flits)
Measured flits: (0 flits)
Class 0:
Remaining flits: (0 flits)
Measured flits: (0 flits)
Class 0:
Remaining flits: (0 flits)
Measured flits: (0 flits)
Class 0:
Remaining flits: (0 flits)
Measured flits: (0 flits)
Class 0:
Remaining flits: (0 flits)
Measured flits: (0 flits)
Class 0:
Remaining flits: (0 flits)
Measured flits: (0 flits)
Class 0:
Remaining flits: (0 flits)
Measured flits: (0 flits)
Class 0:
Remaining flits: (0 flits)
Measured flits: (0 flits)
Class 0:
Remaining flits: (0 flits)
Measured flits: (0 flits)
Class 0:
Remaining flits: (0 flits)
Measured flits: (0 flits)
Class 0:
Remaining flits: (0 flits)
Measured flits: (0 flits)
Class 0:
Remaining flits: (0 flits)
Measured flits: (0 flits)
Class 0:
Remaining flits: (0 flits)
Measured flits: (0 flits)
Class 0:
Remaining flits: (0 flits)
Measured flits: (0 flits)
Class 0:
Remaining flits: (0 flits)
Measured flits: (0 flits)
Class 0:
Remaining flits: (0 flits)
Measured flits: (0 flits)
Class 0:
Remaining flits: (0 flits)
Measured flits: (0 flits)
Class 0:
Remaining flits: (0 flits)
Measured flits: (0 flits)
Class 0:
Remaining flits: (0 flits)
Measured flits: (0 flits)
Class 0:
Remaining flits: (0 flits)
Measured flits: (0 flits)
Class 0:
Remaining flits: (0 flits)
Measured flits: (0 flits)
Class 0:
Remaining flits: (0 flits)
Measured flits: (0 flits)
Class 0:
Remaining flits: (0 flits)
Measured flits: (0 flits)
Class 0:
Remaining flits: (0 flits)
Measured flits: (0 flits)
Class 0:
Remaining flits: (0 flits)
Measured flits: (0 flits)
Class 0:
Remaining flits: (0 flits)
Measured flits: (0 flits)
Class 0:
Remaining flits: (0 flits)
Measured flits: (0 flits)
Class 0:
Remaining flits: (0 flits)
Measured flits: (0 flits)
Class 0:
Remaining flits: (0 flits)
Measured flits: (0 flits)
Class 0:
Remaining flits: (0 flits)
Measured flits: (0 flits)
Class 0:
Remaining flits: (0 flits)
Measured flits: (0 flits)
Class 0:
Remaining flits: (0 flits)
Measured flits: (0 flits)
Class 0:
Remaining flits: (0 flits)
Measured flits: (0 flits)
Class 0:
Remaining flits: (0 flits)
Measured flits: (0 flits)
Class 0:
Remaining flits: (0 flits)
Measured flits: (0 flits)
Class 0:
Remaining flits: (0 flits)
Measured flits: (0 flits)
Class 0:
Remaining flits: (0 flits)
Measured flits: (0 flits)
Class 0:
Remaining flits: (0 flits)
Measured flits: (0 flits)
Class 0:
Remaining flits: (0 flits)
Measured flits: (0 flits)
Class 0:
Remaining flits: (0 flits)
Measured flits: (0 flits)
Class 0:
Remaining flits: (0 flits)
Measured flits: (0 flits)
Class 0:
Remaining flits: (0 flits)
Measured flits: (0 flits)
Class 0:
Remaining flits: (0 flits)
Measured flits: (0 flits)
Class 0:
Remaining flits: (0 flits)
Measured flits: (0 flits)
Class 0:
Remaining flits: (0 flits)
Measured flits: (0 flits)
Class 0:
Remaining flits: (0 flits)
Measured flits: (0 flits)
Class 0:
Remaining flits: (0 flits)
Measured flits: (0 flits)
Class 0:
Remaining flits: (0 flits)
Measured flits: (0 flits)
Class 0:
Remaining flits: (0 flits)
Measured flits: (0 flits)
Class 0:
Remaining flits: (0 flits)
Measured flits: (0 flits)
Class 0:
Remaining flits: (0 flits)
Measured flits: (0 flits)
Class 0:
Remaining flits: (0 flits)
Measured flits: (0 flits)
Class 0:
Remaining flits: (0 flits)
Measured flits: (0 flits)
Class 0:
Remaining flits: (0 flits)
Measured flits: (0 flits)
Class 0:
Remaining flits: (0 flits)
Measured flits: (0 flits)
Class 0:
Remaining flits: (0 flits)
Measured flits: (0 flits)
Class 0:
Remaining flits: (0 flits)
Measured flits: (0 flits)
Class 0:
Remaining flits: (0 flits)
Measured flits: (0 flits)
Class 0:
Remaining flits: (0 flits)
Measured flits: (0 flits)
Class 0:
Remaining flits: (0 flits)
Measured flits: (0 flits)
Class 0:
Remaining flits: (0 flits)
Measured flits: (0 flits)
Class 0:
Remaining flits: (0 flits)
Measured flits: (0 flits)
Class 0:
Remaining flits: (0 flits)
Measured flits: (0 flits)
Class 0:
Remaining flits: (0 flits)
Measured flits: (0 flits)
Class 0:
Remaining flits: (0 flits)
Measured flits: (0 flits)
Class 0:
Remaining flits: (0 flits)
Measured flits: (0 flits)
Class 0:
Remaining flits: (0 flits)
Measured flits: (0 flits)
Class 0:
Remaining flits: (0 flits)
Measured flits: (0 flits)
Class 0:
Remaining flits: (0 flits)
Measured flits: (0 flits)
Class 0:
Remaining flits: (0 flits)
Measured flits: (0 flits)
Class 0:
Remaining flits: (0 flits)
Measured flits: (0 flits)
Class 0:
Remaining flits: (0 flits)
Measured flits: (0 flits)
Class 0:
Remaining flits: (0 flits)
Measured flits: (0 flits)
Class 0:
Remaining flits: (0 flits)
Measured flits: (0 flits)
Class 0:
Remaining flits: (0 flits)
Measured flits: (0 flits)
Class 0:
Remaining flits: (0 flits)
Measured flits: (0 flits)
Class 0:
Remaining flits: (0 flits)
Measured flits: (0 flits)
Class 0:
Remaining flits: (0 flits)
Measured flits: (0 flits)
Class 0:
Remaining flits: (0 flits)
Measured flits: (0 flits)
Class 0:
Remaining flits: (0 flits)
Measured flits: (0 flits)
Class 0:
Remaining flits: (0 flits)
Measured flits: (0 flits)
Time taken is 61000 cycles
====== Traffic class 0 ======

Total number of flits generated = 48037, changed lanes = 47838
Overall minimum packet latency = 29 (1 samples)
Overall average packet latency = 63.1026 (1 samples)
Overall maximum packet latency = 148 (1 samples)
Overall minimum network latency = 30 (1 samples)
Overall average network latency = 64.1026 (1 samples)
Overall maximum network latency = 149 (1 samples)
Overall minimum flit latency = 30 (1 samples)
Overall average flit latency = 64.0986 (1 samples)
Overall maximum flit latency = 149 (1 samples)
Overall minimum fragmentation = 0 (1 samples)
Overall average fragmentation = 0 (1 samples)
Overall maximum fragmentation = 0 (1 samples)
Overall minimum injected packet rate = 0.0482 (1 samples)
Overall average injected packet rate = 0.0501896 (1 samples)
Overall maximum injected packet rate = 0.0528667 (1 samples)
Overall minimum accepted packet rate = 0.0482 (1 samples)
Overall average accepted packet rate = 0.0501542 (1 samples)
Overall maximum accepted packet rate = 0.0528333 (1 samples)
Overall minimum injected flit rate = 0.0482 (1 samples)
Overall average injected flit rate = 0.0501896 (1 samples)
Overall maximum injected flit rate = 0.0528667 (1 samples)
Overall minimum accepted flit rate = 0.0482 (1 samples)
Overall average accepted flit rate = 0.0501542 (1 samples)
Overall maximum accepted flit rate = 0.0528333 (1 samples)
Overall average injected packet size = 1 (1 samples)
Overall average accepted packet size = 1 (1 samples)
Overall average hops = 5.00672 (1 samples)
Overall throughput of the network (flits/cycle) = 1.60123
Overall throughput of the network (packets/cycle) = 1.60123
Total run time 123.425
