make: Nothing to be done for 'all'.
Master: Running timer....
Master: Running SRC....
BEGIN Configuration File: ./examples/bitrev
// Topology

topology = mesh;
k = 4;
n = 2;

// Routing
routing_function = dor;

// Flow control
num_vcs     = 4;
vc_buf_size = 4;
wait_for_tail_credit = 0;

// Router architecture
vc_allocator = islip;
sw_allocator = islip;
alloc_iters  = 1;

credit_delay   = 1;
routing_delay  = 1;
vc_alloc_delay = 1;
sw_alloc_delay = 1;

input_speedup     = 1;
output_speedup    = 1;
internal_speedup  = 1.0;

vc_busy_when_full = 0;

// Traffic
traffic = bitrev;
packet_size = 1;

// Simulation
sim_type = throughput;

injection_rate = 0.05;

END Configuration File: ./examples/bitrev
===== Time: 10000 =====
Class 0:
Minimum packet latency = 7
Average packet latency = 49.5909
Maximum packet latency = 233
Minimum network latency = 8
Average network latency = 50.5909
Maximum network latency = 234
Slowest packet = 1983
Minimum flit latency = 8
Average flit latency = 50.5909
Maximum flit latency = 234
Slowest flit = 1983
Minimum fragmentation = 0
Average fragmentation = 0
Maximum fragmentation = 0
Minimum injected packet rate = 0.0458 (at node 0)
Average injected packet rate = 0.0494687
Maximum injected packet rate = 0.0515 (at node 12)
Minimum accepted packet rate = 0.0458 (at node 0)
Average accepted packet rate = 0.0492688
Maximum accepted packet rate = 0.0513 (at node 9)
Minimum injected flit rate = 0.0458 (at node 0)
Average injected flit rate = 0.0494687
Maximum injected flit rate = 0.0515 (at node 12)
Minimum accepted flit rate = 0.0458 (at node 0)
Average accepted flit rate = 0.0492688
Maximum accepted flit rate = 0.0513 (at node 9)
Total number of injected packets = 7915
Total number of injected flits = 7915
Average injected packet length = 1
Total number of accepted packets = 7883
Total number of accepted flits = 7883
Average accepted packet length = 1
Total in-flight flits = 32 (0 measured)
===== Time: 20000 =====
Class 0:
Minimum packet latency = 7
Average packet latency = 50.2127
Maximum packet latency = 298
Minimum network latency = 8
Average network latency = 51.2127
Maximum network latency = 299
Slowest packet = 11373
Minimum flit latency = 8
Average flit latency = 51.2127
Maximum flit latency = 299
Slowest flit = 11373
Minimum fragmentation = 0
Average fragmentation = 0
Maximum fragmentation = 0
Minimum injected packet rate = 0.0483 (at node 8)
Average injected packet rate = 0.0500375
Maximum injected packet rate = 0.0526 (at node 12)
Minimum accepted packet rate = 0.0481 (at node 1)
Average accepted packet rate = 0.049925
Maximum accepted packet rate = 0.0524 (at node 3)
Minimum injected flit rate = 0.0483 (at node 8)
Average injected flit rate = 0.0500375
Maximum injected flit rate = 0.0526 (at node 12)
Minimum accepted flit rate = 0.0481 (at node 1)
Average accepted flit rate = 0.049925
Maximum accepted flit rate = 0.0524 (at node 3)
Total number of injected packets = 16012
Total number of injected flits = 16012
Average injected packet length = 1
Total number of accepted packets = 15976
Total number of accepted flits = 15976
Average accepted packet length = 1
Total in-flight flits = 36 (0 measured)
===== Time: 30000 =====
Class 0:
Minimum packet latency = 7
Average packet latency = 50.7824
Maximum packet latency = 223
Minimum network latency = 8
Average network latency = 51.7824
Maximum network latency = 224
Slowest packet = 16808
Minimum flit latency = 8
Average flit latency = 51.7824
Maximum flit latency = 224
Slowest flit = 16808
Minimum fragmentation = 0
Average fragmentation = 0
Maximum fragmentation = 0
Minimum injected packet rate = 0.045 (at node 15)
Average injected packet rate = 0.0495875
Maximum injected packet rate = 0.0541 (at node 13)
Minimum accepted packet rate = 0.045 (at node 15)
Average accepted packet rate = 0.0496313
Maximum accepted packet rate = 0.0541 (at node 11)
Minimum injected flit rate = 0.045 (at node 15)
Average injected flit rate = 0.0495875
Maximum injected flit rate = 0.0541 (at node 13)
Minimum accepted flit rate = 0.045 (at node 15)
Average accepted flit rate = 0.0496313
Maximum accepted flit rate = 0.0541 (at node 11)
Total number of injected packets = 7934
Total number of injected flits = 7934
Average injected packet length = 1
Total number of accepted packets = 7941
Total number of accepted flits = 7941
Average accepted packet length = 1
Total in-flight flits = 29 (0 measured)
===== Time: 40000 =====
Class 0:
Minimum packet latency = 7
Average packet latency = 49.5279
Maximum packet latency = 200
Minimum network latency = 8
Average network latency = 50.5279
Maximum network latency = 201
Slowest packet = 28216
Minimum flit latency = 8
Average flit latency = 50.5751
Maximum flit latency = 201
Slowest flit = 28216
Minimum fragmentation = 0
Average fragmentation = 0
Maximum fragmentation = 0
Minimum injected packet rate = 0.0473 (at node 6)
Average injected packet rate = 0.0501938
Maximum injected packet rate = 0.0543 (at node 14)
Minimum accepted packet rate = 0.0472 (at node 6)
Average accepted packet rate = 0.050075
Maximum accepted packet rate = 0.0537 (at node 7)
Minimum injected flit rate = 0.0473 (at node 6)
Average injected flit rate = 0.0501938
Maximum injected flit rate = 0.0543 (at node 14)
Minimum accepted flit rate = 0.0472 (at node 6)
Average accepted flit rate = 0.050075
Maximum accepted flit rate = 0.0537 (at node 7)
Total number of injected packets = 8031
Total number of injected flits = 8031
Average injected packet length = 1
Total number of accepted packets = 8012
Total number of accepted flits = 8012
Average accepted packet length = 1
Total in-flight flits = 48 (48 measured)
===== Time: 50000 =====
Class 0:
Minimum packet latency = 7
Average packet latency = 52.4243
Maximum packet latency = 317
Minimum network latency = 8
Average network latency = 53.4243
Maximum network latency = 318
Slowest packet = 34054
Minimum flit latency = 8
Average flit latency = 53.4426
Maximum flit latency = 318
Slowest flit = 34054
Minimum fragmentation = 0
Average fragmentation = 0
Maximum fragmentation = 0
Minimum injected packet rate = 0.04815 (at node 10)
Average injected packet rate = 0.0503
Maximum injected packet rate = 0.05345 (at node 14)
Minimum accepted packet rate = 0.0482 (at node 5)
Average accepted packet rate = 0.050275
Maximum accepted packet rate = 0.05335 (at node 7)
Minimum injected flit rate = 0.04815 (at node 10)
Average injected flit rate = 0.0503
Maximum injected flit rate = 0.05345 (at node 14)
Minimum accepted flit rate = 0.0482 (at node 5)
Average accepted flit rate = 0.050275
Maximum accepted flit rate = 0.05335 (at node 7)
Total number of injected packets = 16096
Total number of injected flits = 16096
Average injected packet length = 1
Total number of accepted packets = 16088
Total number of accepted flits = 16088
Average accepted packet length = 1
Total in-flight flits = 37 (37 measured)
===== Time: 60000 =====
Class 0:
Minimum packet latency = 7
Average packet latency = 52.0595
Maximum packet latency = 324
Minimum network latency = 8
Average network latency = 53.0595
Maximum network latency = 325
Slowest packet = 44657
Minimum flit latency = 8
Average flit latency = 53.0722
Maximum flit latency = 325
Slowest flit = 44657
Minimum fragmentation = 0
Average fragmentation = 0
Maximum fragmentation = 0
Minimum injected packet rate = 0.0482 (at node 10)
Average injected packet rate = 0.0501896
Maximum injected packet rate = 0.0528667 (at node 14)
Minimum accepted packet rate = 0.0482 (at node 5)
Average accepted packet rate = 0.0501604
Maximum accepted packet rate = 0.0527667 (at node 7)
Minimum injected flit rate = 0.0482 (at node 10)
Average injected flit rate = 0.0501896
Maximum injected flit rate = 0.0528667 (at node 14)
Minimum accepted flit rate = 0.0482 (at node 5)
Average accepted flit rate = 0.0501604
Maximum accepted flit rate = 0.0527667 (at node 7)
Total number of injected packets = 24091
Total number of injected flits = 24091
Average injected packet length = 1
Total number of accepted packets = 24077
Total number of accepted flits = 24077
Average accepted packet length = 1
Total in-flight flits = 43 (43 measured)
Draining remaining packets ...
Class 0:
Remaining flits: 47939 47957 47961 47970 47972 47975 47979 47980 47997 48005 [...] (33 flits)
Measured flits: 47939 47957 47961 47970 47972 47975 47979 47980 47997 48005 [...] (33 flits)
Class 0:
Remaining flits: 47957 47961 47975 47979 47980 48005 48007 48009 48010 48012 [...] (27 flits)
Measured flits: 47957 47961 47975 47979 47980 48005 48007 48009 48010 48012 [...] (27 flits)
Class 0:
Remaining flits: 47957 47975 47979 47980 48005 48009 48010 48012 48014 48015 [...] (22 flits)
Measured flits: 47957 47975 47979 47980 48005 48009 48010 48012 48014 48015 [...] (22 flits)
Class 0:
Remaining flits: 47975 47980 48005 48014 48015 48016 48021 48022 48023 48025 [...] (14 flits)
Measured flits: 47975 47980 48005 48014 48015 48016 48021 48022 48023 48025 [...] (14 flits)
Class 0:
Remaining flits: 47980 48005 48015 48016 48021 48022 48023 48025 48029 48034 (10 flits)
Measured flits: 47980 48005 48015 48016 48021 48022 48023 48025 48029 48034 (10 flits)
Class 0:
Remaining flits: 48005 48015 48021 48022 48023 48029 (6 flits)
Measured flits: 48005 48015 48021 48022 48023 48029 (6 flits)
Class 0:
Remaining flits: 48005 48022 48023 48029 (4 flits)
Measured flits: 48005 48022 48023 48029 (4 flits)
Class 0:
Remaining flits: 48005 48023 48029 (3 flits)
Measured flits: 48005 48023 48029 (3 flits)
Class 0:
Remaining flits: 48029 (1 flits)
Measured flits: 48029 (1 flits)
Class 0:
Remaining flits: (0 flits)
Measured flits: (0 flits)
Class 0:
Remaining flits: (0 flits)
Measured flits: (0 flits)
Class 0:
Remaining flits: (0 flits)
Measured flits: (0 flits)
Class 0:
Remaining flits: (0 flits)
Measured flits: (0 flits)
Class 0:
Remaining flits: (0 flits)
Measured flits: (0 flits)
Class 0:
Remaining flits: (0 flits)
Measured flits: (0 flits)
Class 0:
Remaining flits: (0 flits)
Measured flits: (0 flits)
Class 0:
Remaining flits: (0 flits)
Measured flits: (0 flits)
Class 0:
Remaining flits: (0 flits)
Measured flits: (0 flits)
Class 0:
Remaining flits: (0 flits)
Measured flits: (0 flits)
Class 0:
Remaining flits: (0 flits)
Measured flits: (0 flits)
Class 0:
Remaining flits: (0 flits)
Measured flits: (0 flits)
Class 0:
Remaining flits: (0 flits)
Measured flits: (0 flits)
Class 0:
Remaining flits: (0 flits)
Measured flits: (0 flits)
Class 0:
Remaining flits: (0 flits)
Measured flits: (0 flits)
Class 0:
Remaining flits: (0 flits)
Measured flits: (0 flits)
Class 0:
Remaining flits: (0 flits)
Measured flits: (0 flits)
Class 0:
Remaining flits: (0 flits)
Measured flits: (0 flits)
Class 0:
Remaining flits: (0 flits)
Measured flits: (0 flits)
Class 0:
Remaining flits: (0 flits)
Measured flits: (0 flits)
Class 0:
Remaining flits: (0 flits)
Measured flits: (0 flits)
Class 0:
Remaining flits: (0 flits)
Measured flits: (0 flits)
Class 0:
Remaining flits: (0 flits)
Measured flits: (0 flits)
Class 0:
Remaining flits: (0 flits)
Measured flits: (0 flits)
Class 0:
Remaining flits: (0 flits)
Measured flits: (0 flits)
Class 0:
Remaining flits: (0 flits)
Measured flits: (0 flits)
Class 0:
Remaining flits: (0 flits)
Measured flits: (0 flits)
Class 0:
Remaining flits: (0 flits)
Measured flits: (0 flits)
Class 0:
Remaining flits: (0 flits)
Measured flits: (0 flits)
Class 0:
Remaining flits: (0 flits)
Measured flits: (0 flits)
Class 0:
Remaining flits: (0 flits)
Measured flits: (0 flits)
Class 0:
Remaining flits: (0 flits)
Measured flits: (0 flits)
Class 0:
Remaining flits: (0 flits)
Measured flits: (0 flits)
Class 0:
Remaining flits: (0 flits)
Measured flits: (0 flits)
Class 0:
Remaining flits: (0 flits)
Measured flits: (0 flits)
Class 0:
Remaining flits: (0 flits)
Measured flits: (0 flits)
Class 0:
Remaining flits: (0 flits)
Measured flits: (0 flits)
Class 0:
Remaining flits: (0 flits)
Measured flits: (0 flits)
Class 0:
Remaining flits: (0 flits)
Measured flits: (0 flits)
Class 0:
Remaining flits: (0 flits)
Measured flits: (0 flits)
Class 0:
Remaining flits: (0 flits)
Measured flits: (0 flits)
Class 0:
Remaining flits: (0 flits)
Measured flits: (0 flits)
Class 0:
Remaining flits: (0 flits)
Measured flits: (0 flits)
Class 0:
Remaining flits: (0 flits)
Measured flits: (0 flits)
Class 0:
Remaining flits: (0 flits)
Measured flits: (0 flits)
Class 0:
Remaining flits: (0 flits)
Measured flits: (0 flits)
Class 0:
Remaining flits: (0 flits)
Measured flits: (0 flits)
Class 0:
Remaining flits: (0 flits)
Measured flits: (0 flits)
Class 0:
Remaining flits: (0 flits)
Measured flits: (0 flits)
Class 0:
Remaining flits: (0 flits)
Measured flits: (0 flits)
Class 0:
Remaining flits: (0 flits)
Measured flits: (0 flits)
Class 0:
Remaining flits: (0 flits)
Measured flits: (0 flits)
Class 0:
Remaining flits: (0 flits)
Measured flits: (0 flits)
Class 0:
Remaining flits: (0 flits)
Measured flits: (0 flits)
Class 0:
Remaining flits: (0 flits)
Measured flits: (0 flits)
Class 0:
Remaining flits: (0 flits)
Measured flits: (0 flits)
Class 0:
Remaining flits: (0 flits)
Measured flits: (0 flits)
Class 0:
Remaining flits: (0 flits)
Measured flits: (0 flits)
Class 0:
Remaining flits: (0 flits)
Measured flits: (0 flits)
Class 0:
Remaining flits: (0 flits)
Measured flits: (0 flits)
Class 0:
Remaining flits: (0 flits)
Measured flits: (0 flits)
Class 0:
Remaining flits: (0 flits)
Measured flits: (0 flits)
Class 0:
Remaining flits: (0 flits)
Measured flits: (0 flits)
Class 0:
Remaining flits: (0 flits)
Measured flits: (0 flits)
Class 0:
Remaining flits: (0 flits)
Measured flits: (0 flits)
Class 0:
Remaining flits: (0 flits)
Measured flits: (0 flits)
Class 0:
Remaining flits: (0 flits)
Measured flits: (0 flits)
Class 0:
Remaining flits: (0 flits)
Measured flits: (0 flits)
Class 0:
Remaining flits: (0 flits)
Measured flits: (0 flits)
Class 0:
Remaining flits: (0 flits)
Measured flits: (0 flits)
Class 0:
Remaining flits: (0 flits)
Measured flits: (0 flits)
Class 0:
Remaining flits: (0 flits)
Measured flits: (0 flits)
Class 0:
Remaining flits: (0 flits)
Measured flits: (0 flits)
Class 0:
Remaining flits: (0 flits)
Measured flits: (0 flits)
Class 0:
Remaining flits: (0 flits)
Measured flits: (0 flits)
Class 0:
Remaining flits: (0 flits)
Measured flits: (0 flits)
Class 0:
Remaining flits: (0 flits)
Measured flits: (0 flits)
Class 0:
Remaining flits: (0 flits)
Measured flits: (0 flits)
Class 0:
Remaining flits: (0 flits)
Measured flits: (0 flits)
Class 0:
Remaining flits: (0 flits)
Measured flits: (0 flits)
Class 0:
Remaining flits: (0 flits)
Measured flits: (0 flits)
Class 0:
Remaining flits: (0 flits)
Measured flits: (0 flits)
Class 0:
Remaining flits: (0 flits)
Measured flits: (0 flits)
Class 0:
Remaining flits: (0 flits)
Measured flits: (0 flits)
Class 0:
Remaining flits: (0 flits)
Measured flits: (0 flits)
Class 0:
Remaining flits: (0 flits)
Measured flits: (0 flits)
Class 0:
Remaining flits: (0 flits)
Measured flits: (0 flits)
Class 0:
Remaining flits: (0 flits)
Measured flits: (0 flits)
Class 0:
Remaining flits: (0 flits)
Measured flits: (0 flits)
Class 0:
Remaining flits: (0 flits)
Measured flits: (0 flits)
Class 0:
Remaining flits: (0 flits)
Measured flits: (0 flits)
Class 0:
Remaining flits: (0 flits)
Measured flits: (0 flits)
Time taken is 61000 cycles
====== Traffic class 0 ======

Total number of flits generated = 48037, changed lanes = 44982
Overall minimum packet latency = 7 (1 samples)
Overall average packet latency = 52.089 (1 samples)
Overall maximum packet latency = 324 (1 samples)
Overall minimum network latency = 8 (1 samples)
Overall average network latency = 53.089 (1 samples)
Overall maximum network latency = 325 (1 samples)
Overall minimum flit latency = 8 (1 samples)
Overall average flit latency = 53.1016 (1 samples)
Overall maximum flit latency = 325 (1 samples)
Overall minimum fragmentation = 0 (1 samples)
Overall average fragmentation = 0 (1 samples)
Overall maximum fragmentation = 0 (1 samples)
Overall minimum injected packet rate = 0.0482 (1 samples)
Overall average injected packet rate = 0.0501896 (1 samples)
Overall maximum injected packet rate = 0.0528667 (1 samples)
Overall minimum accepted packet rate = 0.0482 (1 samples)
Overall average accepted packet rate = 0.0501604 (1 samples)
Overall maximum accepted packet rate = 0.0527667 (1 samples)
Overall minimum injected flit rate = 0.0482 (1 samples)
Overall average injected flit rate = 0.0501896 (1 samples)
Overall maximum injected flit rate = 0.0528667 (1 samples)
Overall minimum accepted flit rate = 0.0482 (1 samples)
Overall average accepted flit rate = 0.0501604 (1 samples)
Overall maximum accepted flit rate = 0.0527667 (1 samples)
Overall average injected packet size = 1 (1 samples)
Overall average accepted packet size = 1 (1 samples)
Overall average hops = 3.50093 (1 samples)
Overall throughput of the network (flits/cycle) = 1.60123
Overall throughput of the network (packets/cycle) = 1.60123
Total run time 217.491
