make: Nothing to be done for 'all'.
BEGIN Configuration File: ./examples/bitrev
// Topology

topology = mesh;
k = 2;
n = 2;

// Routing
routing_function = dor;

// Flow control
num_vcs     = 4;
vc_buf_size = 4;
wait_for_tail_credit = 0;

// Router architecture
vc_allocator = islip;
sw_allocator = islip;
alloc_iters  = 1;

credit_delay   = 1;
routing_delay  = 1;
vc_alloc_delay = 1;
sw_alloc_delay = 1;

input_speedup     = 1;
output_speedup    = 1;
internal_speedup  = 1.0;

vc_busy_when_full = 0;

// Traffic
traffic = neighbor;
packet_size = 1;

// Simulation
sim_type = throughput;

injection_rate=0.05;

END Configuration File: ./examples/bitrev

Time: 17, routerid: 2,f->id: [0],ReceiveFlit, f->vc: 0, f->src: 2, f->dest: 1, input port: 4

Time: 17, routerid: 2,f->id: [0],InputQueuing, f->vc: 0, f->src: 2, f->dest: 1, input port: 4

Time: 17, routerid: 2,f->id: [0],RouteUpdate, f->vc: 0, f->src: 2, f->dest: 1, input port: 4

Time: 18, routerid: 2,f->id: [0],VCUpdate, f->vc: 0, f->src: 2, f->dest: 1, input port: 4

Time: 20, routerid: 2,f->id: [0],SwitchUpdate, f->vc: 0, f->src: 2, f->dest: 1, input port: 4, output_port = 0

Time: 20, routerid: 2,f->id: [0],SendFlits, f->src: 2, f->dest: 1, output port = 0

Time: 21, routerid: 1,f->id: [1],ReceiveFlit, f->vc: 0, f->src: 1, f->dest: 2, input port: 4

Time: 21, routerid: 1,f->id: [1],InputQueuing, f->vc: 0, f->src: 1, f->dest: 2, input port: 4

Time: 21, routerid: 1,f->id: [1],RouteUpdate, f->vc: 0, f->src: 1, f->dest: 2, input port: 4

Time: 22, routerid: 1,f->id: [1],VCUpdate, f->vc: 0, f->src: 1, f->dest: 2, input port: 4

Time: 23, routerid: 0,f->id: [2],ReceiveFlit, f->vc: 0, f->src: 0, f->dest: 3, input port: 4

Time: 23, routerid: 0,f->id: [2],InputQueuing, f->vc: 0, f->src: 0, f->dest: 3, input port: 4

Time: 23, routerid: 0,f->id: [2],RouteUpdate, f->vc: 0, f->src: 0, f->dest: 3, input port: 4

Time: 24, routerid: 3,f->id: [0],ReceiveFlit, f->vc: 0, f->src: 2, f->dest: 1, input port: 1

Time: 24, routerid: 0,f->id: [2],VCUpdate, f->vc: 0, f->src: 0, f->dest: 3, input port: 4

Time: 24, routerid: 1,f->id: [1],SwitchUpdate, f->vc: 0, f->src: 1, f->dest: 2, input port: 4, output_port = 1

Time: 24, routerid: 3,f->id: [0],InputQueuing, f->vc: 0, f->src: 2, f->dest: 1, input port: 1

Time: 24, routerid: 3,f->id: [0],RouteUpdate, f->vc: 0, f->src: 2, f->dest: 1, input port: 1

Time: 24, routerid: 1,f->id: [1],SendFlits, f->src: 1, f->dest: 2, output port = 1

Time: 25, routerid: 3,f->id: [0],VCUpdate, f->vc: 0, f->src: 2, f->dest: 1, input port: 1

Time: 26, routerid: 0,f->id: [2],SwitchUpdate, f->vc: 0, f->src: 0, f->dest: 3, input port: 4, output_port = 0

Time: 26, routerid: 0,f->id: [2],SendFlits, f->src: 0, f->dest: 3, output port = 0

Time: 27, routerid: 2,f->id: [3],ReceiveFlit, f->vc: 1, f->src: 2, f->dest: 1, input port: 4

Time: 27, routerid: 2,f->id: [3],InputQueuing, f->vc: 1, f->src: 2, f->dest: 1, input port: 4

Time: 27, routerid: 2,f->id: [3],RouteUpdate, f->vc: 1, f->src: 2, f->dest: 1, input port: 4

Time: 27, routerid: 3,f->id: [0],SwitchUpdate, f->vc: 0, f->src: 2, f->dest: 1, input port: 1, output_port = 3

Time: 27, routerid: 3,f->id: [0],SendFlits, f->src: 2, f->dest: 1, output port = 3

Time: 28, routerid: 0,f->id: [1],ReceiveFlit, f->vc: 0, f->src: 1, f->dest: 2, input port: 0

Time: 28, routerid: 0,f->id: [1],InputQueuing, f->vc: 0, f->src: 1, f->dest: 2, input port: 0

Time: 28, routerid: 0,f->id: [1],RouteUpdate, f->vc: 0, f->src: 1, f->dest: 2, input port: 0

Time: 28, routerid: 2,f->id: [3],VCUpdate, f->vc: 1, f->src: 2, f->dest: 1, input port: 4

Time: 29, routerid: 0,f->id: [1],VCUpdate, f->vc: 0, f->src: 1, f->dest: 2, input port: 0

Time: 30, routerid: 1,f->id: [2],ReceiveFlit, f->vc: 0, f->src: 0, f->dest: 3, input port: 1

Time: 30, routerid: 1,f->id: [2],InputQueuing, f->vc: 0, f->src: 0, f->dest: 3, input port: 1

Time: 30, routerid: 1,f->id: [2],RouteUpdate, f->vc: 0, f->src: 0, f->dest: 3, input port: 1

Time: 30, routerid: 2,f->id: [3],SwitchUpdate, f->vc: 0, f->src: 2, f->dest: 1, input port: 4, output_port = 0

Time: 30, routerid: 2,f->id: [3],SendFlits, f->src: 2, f->dest: 1, output port = 0

Time: 31, routerid: 1,f->id: [0],ReceiveFlit, f->vc: 0, f->src: 2, f->dest: 1, input port: 2

Time: 31, routerid: 3,f->id: [4],ReceiveFlit, f->vc: 0, f->src: 3, f->dest: 0, input port: 4

Time: 31, routerid: 0,f->id: [1],SwitchUpdate, f->vc: 0, f->src: 1, f->dest: 2, input port: 0, output_port = 2

Time: 31, routerid: 1,f->id: [0],InputQueuing, f->vc: 0, f->src: 2, f->dest: 1, input port: 2

Time: 31, routerid: 1,f->id: [0],RouteUpdate, f->vc: 0, f->src: 2, f->dest: 1, input port: 2

Time: 31, routerid: 1,f->id: [2],VCUpdate, f->vc: 0, f->src: 0, f->dest: 3, input port: 1

Time: 31, routerid: 3,f->id: [4],InputQueuing, f->vc: 0, f->src: 3, f->dest: 0, input port: 4

Time: 31, routerid: 3,f->id: [4],RouteUpdate, f->vc: 0, f->src: 3, f->dest: 0, input port: 4

Time: 31, routerid: 0,f->id: [1],SendFlits, f->src: 1, f->dest: 2, output port = 2

Time: 32, routerid: 1,f->id: [5],ReceiveFlit, f->vc: 1, f->src: 1, f->dest: 2, input port: 4

Time: 32, routerid: 1,f->id: [5],InputQueuing, f->vc: 1, f->src: 1, f->dest: 2, input port: 4

Time: 32, routerid: 1,f->id: [5],RouteUpdate, f->vc: 1, f->src: 1, f->dest: 2, input port: 4

Time: 32, routerid: 1,f->id: [0],VCUpdate, f->vc: 0, f->src: 2, f->dest: 1, input port: 2

Time: 32, routerid: 3,f->id: [4],VCUpdate, f->vc: 0, f->src: 3, f->dest: 0, input port: 4

Time: 33, routerid: 1,f->id: [5],VCUpdate, f->vc: 1, f->src: 1, f->dest: 2, input port: 4

Time: 33, routerid: 1,f->id: [2],SwitchUpdate, f->vc: 0, f->src: 0, f->dest: 3, input port: 1, output_port = 2

Time: 33, routerid: 1,f->id: [2],SendFlits, f->src: 0, f->dest: 3, output port = 2

Time: 34, routerid: 3,f->id: [3],ReceiveFlit, f->vc: 0, f->src: 2, f->dest: 1, input port: 1

Time: 34, routerid: 3,f->id: [6],ReceiveFlit, f->vc: 1, f->src: 3, f->dest: 0, input port: 4

Time: 34, routerid: 1,f->id: [0],SwitchUpdate, f->vc: 0, f->src: 2, f->dest: 1, input port: 2, output_port = 4

Time: 34, routerid: 3,f->id: [3],InputQueuing, f->vc: 0, f->src: 2, f->dest: 1, input port: 1

Time: 34, routerid: 3,f->id: [6],InputQueuing, f->vc: 1, f->src: 3, f->dest: 0, input port: 4

Time: 34, routerid: 3,f->id: [3],RouteUpdate, f->vc: 0, f->src: 2, f->dest: 1, input port: 1

Time: 34, routerid: 3,f->id: [6],RouteUpdate, f->vc: 1, f->src: 3, f->dest: 0, input port: 4

Time: 34, routerid: 3,f->id: [4],SwitchUpdate, f->vc: 0, f->src: 3, f->dest: 0, input port: 4, output_port = 1

Time: 34, routerid: 1,f->id: [0],SendFlits, f->src: 2, f->dest: 1, output port = 4

Time: 34, routerid: 3,f->id: [4],SendFlits, f->src: 3, f->dest: 0, output port = 1

Time: 35, routerid: 2,f->id: [1],ReceiveFlit, f->vc: 0, f->src: 1, f->dest: 2, input port: 3

Time: 35, routerid: 1,f->id: [5],SwitchUpdate, f->vc: 0, f->src: 1, f->dest: 2, input port: 4, output_port = 1

Time: 35, routerid: 2,f->id: [1],InputQueuing, f->vc: 0, f->src: 1, f->dest: 2, input port: 3

Time: 35, routerid: 2,f->id: [1],RouteUpdate, f->vc: 0, f->src: 1, f->dest: 2, input port: 3

Time: 35, routerid: 3,f->id: [3],VCUpdate, f->vc: 0, f->src: 2, f->dest: 1, input port: 1

Time: 35, routerid: 3,f->id: [6],VCUpdate, f->vc: 1, f->src: 3, f->dest: 0, input port: 4

Time: 35, routerid: 1,f->id: [5],SendFlits, f->src: 1, f->dest: 2, output port = 1

Time: 36, routerid: 0,f->id: [7],ReceiveFlit, f->vc: 1, f->src: 0, f->dest: 3, input port: 4

Time: 36, routerid: 0,f->id: [7],InputQueuing, f->vc: 1, f->src: 0, f->dest: 3, input port: 4

Time: 36, routerid: 0,f->id: [7],RouteUpdate, f->vc: 1, f->src: 0, f->dest: 3, input port: 4

Time: 36, routerid: 2,f->id: [1],VCUpdate, f->vc: 0, f->src: 1, f->dest: 2, input port: 3

Time: 37, routerid: 3,f->id: [2],ReceiveFlit, f->vc: 0, f->src: 0, f->dest: 3, input port: 3

Time: 37, routerid: 0,f->id: [7],VCUpdate, f->vc: 1, f->src: 0, f->dest: 3, input port: 4

Time: 37, routerid: 3,f->id: [2],InputQueuing, f->vc: 0, f->src: 0, f->dest: 3, input port: 3

Time: 37, routerid: 3,f->id: [2],RouteUpdate, f->vc: 0, f->src: 0, f->dest: 3, input port: 3

Time: 37, routerid: 3,f->id: [3],SwitchUpdate, f->vc: 1, f->src: 2, f->dest: 1, input port: 1, output_port = 3

Time: 37, routerid: 3,f->id: [6],SwitchUpdate, f->vc: 0, f->src: 3, f->dest: 0, input port: 4, output_port = 1

Time: 37, routerid: 3,f->id: [6],SendFlits, f->src: 3, f->dest: 0, output port = 1

Time: 37, routerid: 3,f->id: [3],SendFlits, f->src: 2, f->dest: 1, output port = 3

Time: 38, routerid: 2,f->id: [4],ReceiveFlit, f->vc: 0, f->src: 3, f->dest: 0, input port: 0

Time: 38, routerid: 2,f->id: [4],InputQueuing, f->vc: 0, f->src: 3, f->dest: 0, input port: 0

Time: 38, routerid: 2,f->id: [4],RouteUpdate, f->vc: 0, f->src: 3, f->dest: 0, input port: 0

Time: 38, routerid: 2,f->id: [1],SwitchUpdate, f->vc: 0, f->src: 1, f->dest: 2, input port: 3, output_port = 4

Time: 38, routerid: 3,f->id: [2],VCUpdate, f->vc: 0, f->src: 0, f->dest: 3, input port: 3

Time: 38, routerid: 2,f->id: [1],SendFlits, f->src: 1, f->dest: 2, output port = 4

Time: 39, routerid: 0,f->id: [5],ReceiveFlit, f->vc: 0, f->src: 1, f->dest: 2, input port: 0

Time: 39, routerid: 0,f->id: [5],InputQueuing, f->vc: 0, f->src: 1, f->dest: 2, input port: 0

Time: 39, routerid: 0,f->id: [5],RouteUpdate, f->vc: 0, f->src: 1, f->dest: 2, input port: 0

Time: 39, routerid: 0,f->id: [7],SwitchUpdate, f->vc: 0, f->src: 0, f->dest: 3, input port: 4, output_port = 0

Time: 39, routerid: 2,f->id: [4],VCUpdate, f->vc: 0, f->src: 3, f->dest: 0, input port: 0

Time: 39, routerid: 0,f->id: [7],SendFlits, f->src: 0, f->dest: 3, output port = 0

Time: 40, routerid: 0,f->id: [5],VCUpdate, f->vc: 0, f->src: 1, f->dest: 2, input port: 0

Time: 40, routerid: 3,f->id: [2],SwitchUpdate, f->vc: 0, f->src: 0, f->dest: 3, input port: 3, output_port = 4

Time: 40, routerid: 3,f->id: [2],SendFlits, f->src: 0, f->dest: 3, output port = 4

Time: 41, routerid: 1,f->id: [3],ReceiveFlit, f->vc: 1, f->src: 2, f->dest: 1, input port: 2

Time: 41, routerid: 2,f->id: [6],ReceiveFlit, f->vc: 0, f->src: 3, f->dest: 0, input port: 0

Time: 41, routerid: 1,f->id: [3],InputQueuing, f->vc: 1, f->src: 2, f->dest: 1, input port: 2

Time: 41, routerid: 1,f->id: [3],RouteUpdate, f->vc: 1, f->src: 2, f->dest: 1, input port: 2

Time: 41, routerid: 2,f->id: [6],InputQueuing, f->vc: 0, f->src: 3, f->dest: 0, input port: 0

Time: 41, routerid: 2,f->id: [6],RouteUpdate, f->vc: 0, f->src: 3, f->dest: 0, input port: 0

Time: 41, routerid: 2,f->id: [4],SwitchUpdate, f->vc: 0, f->src: 3, f->dest: 0, input port: 0, output_port = 3

Time: 41, routerid: 2,f->id: [4],SendFlits, f->src: 3, f->dest: 0, output port = 3

Time: 42, routerid: 1,f->id: [8],ReceiveFlit, f->vc: 2, f->src: 1, f->dest: 2, input port: 4

Time: 42, routerid: 0,f->id: [5],SwitchUpdate, f->vc: 1, f->src: 1, f->dest: 2, input port: 0, output_port = 2

Time: 42, routerid: 1,f->id: [8],InputQueuing, f->vc: 2, f->src: 1, f->dest: 2, input port: 4

Time: 42, routerid: 1,f->id: [8],RouteUpdate, f->vc: 2, f->src: 1, f->dest: 2, input port: 4

Time: 42, routerid: 1,f->id: [3],VCUpdate, f->vc: 1, f->src: 2, f->dest: 1, input port: 2

Time: 42, routerid: 2,f->id: [6],VCUpdate, f->vc: 0, f->src: 3, f->dest: 0, input port: 0

Time: 42, routerid: 0,f->id: [5],SendFlits, f->src: 1, f->dest: 2, output port = 2

Time: 43, routerid: 1,f->id: [7],ReceiveFlit, f->vc: 0, f->src: 0, f->dest: 3, input port: 1

Time: 43, routerid: 1,f->id: [7],InputQueuing, f->vc: 0, f->src: 0, f->dest: 3, input port: 1

Time: 43, routerid: 1,f->id: [7],RouteUpdate, f->vc: 0, f->src: 0, f->dest: 3, input port: 1

Time: 43, routerid: 1,f->id: [8],VCUpdate, f->vc: 2, f->src: 1, f->dest: 2, input port: 4

Time: 44, routerid: 1,f->id: [7],VCUpdate, f->vc: 0, f->src: 0, f->dest: 3, input port: 1

Time: 44, routerid: 1,f->id: [3],SwitchUpdate, f->vc: 0, f->src: 2, f->dest: 1, input port: 2, output_port = 4

Time: 44, routerid: 2,f->id: [6],SwitchUpdate, f->vc: 1, f->src: 3, f->dest: 0, input port: 0, output_port = 3

Time: 44, routerid: 1,f->id: [3],SendFlits, f->src: 2, f->dest: 1, output port = 4

Time: 44, routerid: 2,f->id: [6],SendFlits, f->src: 3, f->dest: 0, output port = 3

Time: 45, routerid: 0,f->id: [4],ReceiveFlit, f->vc: 0, f->src: 3, f->dest: 0, input port: 2

Time: 45, routerid: 0,f->id: [4],InputQueuing, f->vc: 0, f->src: 3, f->dest: 0, input port: 2

Time: 45, routerid: 0,f->id: [4],RouteUpdate, f->vc: 0, f->src: 3, f->dest: 0, input port: 2

Time: 45, routerid: 1,f->id: [8],SwitchUpdate, f->vc: 0, f->src: 1, f->dest: 2, input port: 4, output_port = 1

Time: 45, routerid: 1,f->id: [8],SendFlits, f->src: 1, f->dest: 2, output port = 1

Time: 46, routerid: 2,f->id: [5],ReceiveFlit, f->vc: 1, f->src: 1, f->dest: 2, input port: 3

Time: 46, routerid: 0,f->id: [4],VCUpdate, f->vc: 0, f->src: 3, f->dest: 0, input port: 2

Time: 46, routerid: 1,f->id: [7],SwitchUpdate, f->vc: 1, f->src: 0, f->dest: 3, input port: 1, output_port = 2

Time: 46, routerid: 2,f->id: [5],InputQueuing, f->vc: 1, f->src: 1, f->dest: 2, input port: 3

Time: 46, routerid: 2,f->id: [5],RouteUpdate, f->vc: 1, f->src: 1, f->dest: 2, input port: 3

Time: 46, routerid: 1,f->id: [7],SendFlits, f->src: 0, f->dest: 3, output port = 2

Time: 47, routerid: 2,f->id: [5],VCUpdate, f->vc: 1, f->src: 1, f->dest: 2, input port: 3

Time: 48, routerid: 0,f->id: [6],ReceiveFlit, f->vc: 1, f->src: 3, f->dest: 0, input port: 2

Time: 48, routerid: 1,f->id: [9],ReceiveFlit, f->vc: 3, f->src: 1, f->dest: 2, input port: 4

Time: 48, routerid: 0,f->id: [6],InputQueuing, f->vc: 1, f->src: 3, f->dest: 0, input port: 2

Time: 48, routerid: 0,f->id: [6],RouteUpdate, f->vc: 1, f->src: 3, f->dest: 0, input port: 2

Time: 48, routerid: 0,f->id: [4],SwitchUpdate, f->vc: 0, f->src: 3, f->dest: 0, input port: 2, output_port = 4

Time: 48, routerid: 1,f->id: [9],InputQueuing, f->vc: 3, f->src: 1, f->dest: 2, input port: 4

Time: 48, routerid: 1,f->id: [9],RouteUpdate, f->vc: 3, f->src: 1, f->dest: 2, input port: 4

Time: 48, routerid: 0,f->id: [4],SendFlits, f->src: 3, f->dest: 0, output port = 4

Time: 49, routerid: 0,f->id: [8],ReceiveFlit, f->vc: 0, f->src: 1, f->dest: 2, input port: 0

Time: 49, routerid: 0,f->id: [8],InputQueuing, f->vc: 0, f->src: 1, f->dest: 2, input port: 0

Time: 49, routerid: 0,f->id: [8],RouteUpdate, f->vc: 0, f->src: 1, f->dest: 2, input port: 0

Time: 49, routerid: 0,f->id: [6],VCUpdate, f->vc: 1, f->src: 3, f->dest: 0, input port: 2

Time: 49, routerid: 1,f->id: [9],VCUpdate, f->vc: 3, f->src: 1, f->dest: 2, input port: 4

Time: 49, routerid: 2,f->id: [5],SwitchUpdate, f->vc: 0, f->src: 1, f->dest: 2, input port: 3, output_port = 4

Time: 49, routerid: 2,f->id: [5],SendFlits, f->src: 1, f->dest: 2, output port = 4

Time: 50, routerid: 3,f->id: [7],ReceiveFlit, f->vc: 1, f->src: 0, f->dest: 3, input port: 3

Time: 50, routerid: 3,f->id: [10],ReceiveFlit, f->vc: 2, f->src: 3, f->dest: 0, input port: 4

Time: 50, routerid: 0,f->id: [8],VCUpdate, f->vc: 0, f->src: 1, f->dest: 2, input port: 0

Time: 50, routerid: 3,f->id: [7],InputQueuing, f->vc: 1, f->src: 0, f->dest: 3, input port: 3

Time: 50, routerid: 3,f->id: [10],InputQueuing, f->vc: 2, f->src: 3, f->dest: 0, input port: 4

Time: 50, routerid: 3,f->id: [7],RouteUpdate, f->vc: 1, f->src: 0, f->dest: 3, input port: 3

Time: 50, routerid: 3,f->id: [10],RouteUpdate, f->vc: 2, f->src: 3, f->dest: 0, input port: 4

Time: 51, routerid: 0,f->id: [6],SwitchUpdate, f->vc: 0, f->src: 3, f->dest: 0, input port: 2, output_port = 4

Time: 51, routerid: 1,f->id: [9],SwitchUpdate, f->vc: 0, f->src: 1, f->dest: 2, input port: 4, output_port = 1

Time: 51, routerid: 3,f->id: [7],VCUpdate, f->vc: 1, f->src: 0, f->dest: 3, input port: 3

Time: 51, routerid: 3,f->id: [10],VCUpdate, f->vc: 2, f->src: 3, f->dest: 0, input port: 4

Time: 51, routerid: 0,f->id: [6],SendFlits, f->src: 3, f->dest: 0, output port = 4

Time: 51, routerid: 1,f->id: [9],SendFlits, f->src: 1, f->dest: 2, output port = 1

Time: 52, routerid: 0,f->id: [8],SwitchUpdate, f->vc: 2, f->src: 1, f->dest: 2, input port: 0, output_port = 2

Time: 52, routerid: 0,f->id: [8],SendFlits, f->src: 1, f->dest: 2, output port = 2

Time: 53, routerid: 3,f->id: [7],SwitchUpdate, f->vc: 0, f->src: 0, f->dest: 3, input port: 3, output_port = 4

Time: 53, routerid: 3,f->id: [10],SwitchUpdate, f->vc: 0, f->src: 3, f->dest: 0, input port: 4, output_port = 1

Time: 53, routerid: 3,f->id: [10],SendFlits, f->src: 3, f->dest: 0, output port = 1

Time: 53, routerid: 3,f->id: [7],SendFlits, f->src: 0, f->dest: 3, output port = 4

Time: 55, routerid: 0,f->id: [9],ReceiveFlit, f->vc: 0, f->src: 1, f->dest: 2, input port: 0

Time: 55, routerid: 3,f->id: [11],ReceiveFlit, f->vc: 3, f->src: 3, f->dest: 0, input port: 4

Time: 55, routerid: 0,f->id: [9],InputQueuing, f->vc: 0, f->src: 1, f->dest: 2, input port: 0

Time: 55, routerid: 0,f->id: [9],RouteUpdate, f->vc: 0, f->src: 1, f->dest: 2, input port: 0

Time: 55, routerid: 3,f->id: [11],InputQueuing, f->vc: 3, f->src: 3, f->dest: 0, input port: 4

Time: 55, routerid: 3,f->id: [11],RouteUpdate, f->vc: 3, f->src: 3, f->dest: 0, input port: 4

Time: 56, routerid: 1,f->id: [12],ReceiveFlit, f->vc: 0, f->src: 1, f->dest: 2, input port: 4

Time: 56, routerid: 2,f->id: [8],ReceiveFlit, f->vc: 2, f->src: 1, f->dest: 2, input port: 3

Time: 56, routerid: 0,f->id: [9],VCUpdate, f->vc: 0, f->src: 1, f->dest: 2, input port: 0

Time: 56, routerid: 1,f->id: [12],InputQueuing, f->vc: 0, f->src: 1, f->dest: 2, input port: 4

Time: 56, routerid: 1,f->id: [12],RouteUpdate, f->vc: 0, f->src: 1, f->dest: 2, input port: 4

Time: 56, routerid: 2,f->id: [8],InputQueuing, f->vc: 2, f->src: 1, f->dest: 2, input port: 3

Time: 56, routerid: 2,f->id: [8],RouteUpdate, f->vc: 2, f->src: 1, f->dest: 2, input port: 3

Time: 56, routerid: 3,f->id: [11],VCUpdate, f->vc: 3, f->src: 3, f->dest: 0, input port: 4

Time: 57, routerid: 2,f->id: [10],ReceiveFlit, f->vc: 0, f->src: 3, f->dest: 0, input port: 0

Time: 57, routerid: 1,f->id: [12],VCUpdate, f->vc: 0, f->src: 1, f->dest: 2, input port: 4

Time: 57, routerid: 2,f->id: [10],InputQueuing, f->vc: 0, f->src: 3, f->dest: 0, input port: 0

Time: 57, routerid: 2,f->id: [10],RouteUpdate, f->vc: 0, f->src: 3, f->dest: 0, input port: 0

Time: 57, routerid: 2,f->id: [8],VCUpdate, f->vc: 2, f->src: 1, f->dest: 2, input port: 3

Time: 58, routerid: 0,f->id: [9],SwitchUpdate, f->vc: 3, f->src: 1, f->dest: 2, input port: 0, output_port = 2

Time: 58, routerid: 2,f->id: [10],VCUpdate, f->vc: 0, f->src: 3, f->dest: 0, input port: 0

Time: 58, routerid: 3,f->id: [11],SwitchUpdate, f->vc: 0, f->src: 3, f->dest: 0, input port: 4, output_port = 1

Time: 58, routerid: 0,f->id: [9],SendFlits, f->src: 1, f->dest: 2, output port = 2

Time: 58, routerid: 3,f->id: [11],SendFlits, f->src: 3, f->dest: 0, output port = 1

Time: 59, routerid: 1,f->id: [12],SwitchUpdate, f->vc: 1, f->src: 1, f->dest: 2, input port: 4, output_port = 1

Time: 59, routerid: 2,f->id: [8],SwitchUpdate, f->vc: 0, f->src: 1, f->dest: 2, input port: 3, output_port = 4

Time: 59, routerid: 1,f->id: [12],SendFlits, f->src: 1, f->dest: 2, output port = 1

Time: 59, routerid: 2,f->id: [8],SendFlits, f->src: 1, f->dest: 2, output port = 4

Time: 60, routerid: 2,f->id: [10],SwitchUpdate, f->vc: 2, f->src: 3, f->dest: 0, input port: 0, output_port = 3

Time: 60, routerid: 2,f->id: [10],SendFlits, f->src: 3, f->dest: 0, output port = 3

Time: 62, routerid: 2,f->id: [11],ReceiveFlit, f->vc: 0, f->src: 3, f->dest: 0, input port: 0

Time: 62, routerid: 2,f->id: [9],ReceiveFlit, f->vc: 3, f->src: 1, f->dest: 2, input port: 3

Time: 62, routerid: 2,f->id: [11],InputQueuing, f->vc: 0, f->src: 3, f->dest: 0, input port: 0

Time: 62, routerid: 2,f->id: [9],InputQueuing, f->vc: 3, f->src: 1, f->dest: 2, input port: 3

Time: 62, routerid: 2,f->id: [11],RouteUpdate, f->vc: 0, f->src: 3, f->dest: 0, input port: 0

Time: 62, routerid: 2,f->id: [9],RouteUpdate, f->vc: 3, f->src: 1, f->dest: 2, input port: 3

Time: 63, routerid: 0,f->id: [12],ReceiveFlit, f->vc: 1, f->src: 1, f->dest: 2, input port: 0

Time: 63, routerid: 0,f->id: [12],InputQueuing, f->vc: 1, f->src: 1, f->dest: 2, input port: 0

Time: 63, routerid: 0,f->id: [12],RouteUpdate, f->vc: 1, f->src: 1, f->dest: 2, input port: 0

Time: 63, routerid: 2,f->id: [11],VCUpdate, f->vc: 0, f->src: 3, f->dest: 0, input port: 0

Time: 63, routerid: 2,f->id: [9],VCUpdate, f->vc: 3, f->src: 1, f->dest: 2, input port: 3

Time: 64, routerid: 0,f->id: [10],ReceiveFlit, f->vc: 2, f->src: 3, f->dest: 0, input port: 2

Time: 64, routerid: 0,f->id: [10],InputQueuing, f->vc: 2, f->src: 3, f->dest: 0, input port: 2

Time: 64, routerid: 0,f->id: [10],RouteUpdate, f->vc: 2, f->src: 3, f->dest: 0, input port: 2

Time: 64, routerid: 0,f->id: [12],VCUpdate, f->vc: 1, f->src: 1, f->dest: 2, input port: 0

Time: 65, routerid: 0,f->id: [10],VCUpdate, f->vc: 2, f->src: 3, f->dest: 0, input port: 2

Time: 65, routerid: 2,f->id: [11],SwitchUpdate, f->vc: 3, f->src: 3, f->dest: 0, input port: 0, output_port = 3

Time: 65, routerid: 2,f->id: [9],SwitchUpdate, f->vc: 0, f->src: 1, f->dest: 2, input port: 3, output_port = 4

Time: 65, routerid: 2,f->id: [11],SendFlits, f->src: 3, f->dest: 0, output port = 3

Time: 65, routerid: 2,f->id: [9],SendFlits, f->src: 1, f->dest: 2, output port = 4

Time: 66, routerid: 3,f->id: [13],ReceiveFlit, f->vc: 0, f->src: 3, f->dest: 0, input port: 4

Time: 66, routerid: 0,f->id: [12],SwitchUpdate, f->vc: 0, f->src: 1, f->dest: 2, input port: 0, output_port = 2

Time: 66, routerid: 3,f->id: [13],InputQueuing, f->vc: 0, f->src: 3, f->dest: 0, input port: 4

Time: 66, routerid: 3,f->id: [13],RouteUpdate, f->vc: 0, f->src: 3, f->dest: 0, input port: 4

Time: 66, routerid: 0,f->id: [12],SendFlits, f->src: 1, f->dest: 2, output port = 2

Time: 67, routerid: 0,f->id: [10],SwitchUpdate, f->vc: 0, f->src: 3, f->dest: 0, input port: 2, output_port = 4

Time: 67, routerid: 3,f->id: [13],VCUpdate, f->vc: 0, f->src: 3, f->dest: 0, input port: 4

Time: 67, routerid: 0,f->id: [10],SendFlits, f->src: 3, f->dest: 0, output port = 4

Time: 69, routerid: 0,f->id: [11],ReceiveFlit, f->vc: 3, f->src: 3, f->dest: 0, input port: 2

Time: 69, routerid: 1,f->id: [14],ReceiveFlit, f->vc: 1, f->src: 1, f->dest: 2, input port: 4

Time: 69, routerid: 3,f->id: [15],ReceiveFlit, f->vc: 1, f->src: 3, f->dest: 0, input port: 4

Time: 69, routerid: 0,f->id: [11],InputQueuing, f->vc: 3, f->src: 3, f->dest: 0, input port: 2

Time: 69, routerid: 0,f->id: [11],RouteUpdate, f->vc: 3, f->src: 3, f->dest: 0, input port: 2

Time: 69, routerid: 1,f->id: [14],InputQueuing, f->vc: 1, f->src: 1, f->dest: 2, input port: 4

Time: 69, routerid: 1,f->id: [14],RouteUpdate, f->vc: 1, f->src: 1, f->dest: 2, input port: 4

Time: 69, routerid: 3,f->id: [15],InputQueuing, f->vc: 1, f->src: 3, f->dest: 0, input port: 4

Time: 69, routerid: 3,f->id: [15],RouteUpdate, f->vc: 1, f->src: 3, f->dest: 0, input port: 4

Time: 69, routerid: 3,f->id: [13],SwitchUpdate, f->vc: 1, f->src: 3, f->dest: 0, input port: 4, output_port = 1

Time: 69, routerid: 3,f->id: [13],SendFlits, f->src: 3, f->dest: 0, output port = 1

Time: 70, routerid: 2,f->id: [12],ReceiveFlit, f->vc: 0, f->src: 1, f->dest: 2, input port: 3

Time: 70, routerid: 3,f->id: [16],ReceiveFlit, f->vc: 2, f->src: 3, f->dest: 0, input port: 4

Time: 70, routerid: 0,f->id: [11],VCUpdate, f->vc: 3, f->src: 3, f->dest: 0, input port: 2

Time: 70, routerid: 1,f->id: [14],VCUpdate, f->vc: 1, f->src: 1, f->dest: 2, input port: 4

Time: 70, routerid: 2,f->id: [12],InputQueuing, f->vc: 0, f->src: 1, f->dest: 2, input port: 3

Time: 70, routerid: 2,f->id: [12],RouteUpdate, f->vc: 0, f->src: 1, f->dest: 2, input port: 3

Time: 70, routerid: 3,f->id: [16],InputQueuing, f->vc: 2, f->src: 3, f->dest: 0, input port: 4

Time: 70, routerid: 3,f->id: [16],RouteUpdate, f->vc: 2, f->src: 3, f->dest: 0, input port: 4

Time: 70, routerid: 3,f->id: [15],VCUpdate, f->vc: 1, f->src: 3, f->dest: 0, input port: 4

Time: 71, routerid: 2,f->id: [12],VCUpdate, f->vc: 0, f->src: 1, f->dest: 2, input port: 3

Time: 71, routerid: 3,f->id: [16],VCUpdate, f->vc: 2, f->src: 3, f->dest: 0, input port: 4

Time: 72, routerid: 0,f->id: [11],SwitchUpdate, f->vc: 0, f->src: 3, f->dest: 0, input port: 2, output_port = 4

Time: 72, routerid: 1,f->id: [14],SwitchUpdate, f->vc: 1, f->src: 1, f->dest: 2, input port: 4, output_port = 1

Time: 72, routerid: 3,f->id: [15],SwitchUpdate, f->vc: 1, f->src: 3, f->dest: 0, input port: 4, output_port = 1

Time: 72, routerid: 0,f->id: [11],SendFlits, f->src: 3, f->dest: 0, output port = 4

Time: 72, routerid: 1,f->id: [14],SendFlits, f->src: 1, f->dest: 2, output port = 1

Time: 72, routerid: 3,f->id: [15],SendFlits, f->src: 3, f->dest: 0, output port = 1

Time: 73, routerid: 2,f->id: [13],ReceiveFlit, f->vc: 1, f->src: 3, f->dest: 0, input port: 0

Time: 73, routerid: 2,f->id: [13],InputQueuing, f->vc: 1, f->src: 3, f->dest: 0, input port: 0

Time: 73, routerid: 2,f->id: [13],RouteUpdate, f->vc: 1, f->src: 3, f->dest: 0, input port: 0

Time: 73, routerid: 2,f->id: [12],SwitchUpdate, f->vc: 1, f->src: 1, f->dest: 2, input port: 3, output_port = 4

Time: 73, routerid: 3,f->id: [16],SwitchUpdate, f->vc: 2, f->src: 3, f->dest: 0, input port: 4, output_port = 1

Time: 73, routerid: 2,f->id: [12],SendFlits, f->src: 1, f->dest: 2, output port = 4

Time: 73, routerid: 3,f->id: [16],SendFlits, f->src: 3, f->dest: 0, output port = 1

Time: 74, routerid: 2,f->id: [13],VCUpdate, f->vc: 1, f->src: 3, f->dest: 0, input port: 0

Time: 76, routerid: 0,f->id: [14],ReceiveFlit, f->vc: 1, f->src: 1, f->dest: 2, input port: 0

Time: 76, routerid: 0,f->id: [17],ReceiveFlit, f->vc: 2, f->src: 0, f->dest: 3, input port: 4

Time: 76, routerid: 2,f->id: [15],ReceiveFlit, f->vc: 1, f->src: 3, f->dest: 0, input port: 0

Time: 76, routerid: 0,f->id: [14],InputQueuing, f->vc: 1, f->src: 1, f->dest: 2, input port: 0

Time: 76, routerid: 0,f->id: [17],InputQueuing, f->vc: 2, f->src: 0, f->dest: 3, input port: 4

Time: 76, routerid: 0,f->id: [14],RouteUpdate, f->vc: 1, f->src: 1, f->dest: 2, input port: 0

Time: 76, routerid: 0,f->id: [17],RouteUpdate, f->vc: 2, f->src: 0, f->dest: 3, input port: 4

Time: 76, routerid: 2,f->id: [15],InputQueuing, f->vc: 1, f->src: 3, f->dest: 0, input port: 0

Time: 76, routerid: 2,f->id: [15],RouteUpdate, f->vc: 1, f->src: 3, f->dest: 0, input port: 0

Time: 76, routerid: 2,f->id: [13],SwitchUpdate, f->vc: 0, f->src: 3, f->dest: 0, input port: 0, output_port = 3

Time: 76, routerid: 2,f->id: [13],SendFlits, f->src: 3, f->dest: 0, output port = 3

Time: 77, routerid: 2,f->id: [16],ReceiveFlit, f->vc: 2, f->src: 3, f->dest: 0, input port: 0

Time: 77, routerid: 2,f->id: [18],ReceiveFlit, f->vc: 2, f->src: 2, f->dest: 1, input port: 4

Time: 77, routerid: 0,f->id: [14],VCUpdate, f->vc: 1, f->src: 1, f->dest: 2, input port: 0

Time: 77, routerid: 0,f->id: [17],VCUpdate, f->vc: 2, f->src: 0, f->dest: 3, input port: 4

Time: 77, routerid: 2,f->id: [16],InputQueuing, f->vc: 2, f->src: 3, f->dest: 0, input port: 0

Time: 77, routerid: 2,f->id: [18],InputQueuing, f->vc: 2, f->src: 2, f->dest: 1, input port: 4

Time: 77, routerid: 2,f->id: [16],RouteUpdate, f->vc: 2, f->src: 3, f->dest: 0, input port: 0

Time: 77, routerid: 2,f->id: [18],RouteUpdate, f->vc: 2, f->src: 2, f->dest: 1, input port: 4

Time: 77, routerid: 2,f->id: [15],VCUpdate, f->vc: 1, f->src: 3, f->dest: 0, input port: 0

Time: 78, routerid: 2,f->id: [16],VCUpdate, f->vc: 2, f->src: 3, f->dest: 0, input port: 0

Time: 78, routerid: 2,f->id: [18],VCUpdate, f->vc: 2, f->src: 2, f->dest: 1, input port: 4

Time: 79, routerid: 0,f->id: [14],SwitchUpdate, f->vc: 1, f->src: 1, f->dest: 2, input port: 0, output_port = 2

Time: 79, routerid: 0,f->id: [17],SwitchUpdate, f->vc: 0, f->src: 0, f->dest: 3, input port: 4, output_port = 0

Time: 79, routerid: 2,f->id: [15],SwitchUpdate, f->vc: 1, f->src: 3, f->dest: 0, input port: 0, output_port = 3

Time: 79, routerid: 0,f->id: [17],SendFlits, f->src: 0, f->dest: 3, output port = 0

Time: 79, routerid: 0,f->id: [14],SendFlits, f->src: 1, f->dest: 2, output port = 2

Time: 79, routerid: 2,f->id: [15],SendFlits, f->src: 3, f->dest: 0, output port = 3

Time: 80, routerid: 0,f->id: [13],ReceiveFlit, f->vc: 0, f->src: 3, f->dest: 0, input port: 2

Time: 80, routerid: 0,f->id: [13],InputQueuing, f->vc: 0, f->src: 3, f->dest: 0, input port: 2

Time: 80, routerid: 0,f->id: [13],RouteUpdate, f->vc: 0, f->src: 3, f->dest: 0, input port: 2

Time: 80, routerid: 2,f->id: [16],SwitchUpdate, f->vc: 0, f->src: 3, f->dest: 0, input port: 0, output_port = 3

Time: 80, routerid: 2,f->id: [18],SwitchUpdate, f->vc: 0, f->src: 2, f->dest: 1, input port: 4, output_port = 0

Time: 80, routerid: 2,f->id: [18],SendFlits, f->src: 2, f->dest: 1, output port = 0

Time: 80, routerid: 2,f->id: [16],SendFlits, f->src: 3, f->dest: 0, output port = 3

Time: 81, routerid: 0,f->id: [13],VCUpdate, f->vc: 0, f->src: 3, f->dest: 0, input port: 2

Time: 83, routerid: 0,f->id: [15],ReceiveFlit, f->vc: 1, f->src: 3, f->dest: 0, input port: 2

Time: 83, routerid: 0,f->id: [19],ReceiveFlit, f->vc: 3, f->src: 0, f->dest: 3, input port: 4

Time: 83, routerid: 1,f->id: [17],ReceiveFlit, f->vc: 0, f->src: 0, f->dest: 3, input port: 1

Time: 83, routerid: 2,f->id: [14],ReceiveFlit, f->vc: 1, f->src: 1, f->dest: 2, input port: 3

Time: 83, routerid: 0,f->id: [15],InputQueuing, f->vc: 1, f->src: 3, f->dest: 0, input port: 2

Time: 83, routerid: 0,f->id: [19],InputQueuing, f->vc: 3, f->src: 0, f->dest: 3, input port: 4

Time: 83, routerid: 0,f->id: [15],RouteUpdate, f->vc: 1, f->src: 3, f->dest: 0, input port: 2

Time: 83, routerid: 0,f->id: [19],RouteUpdate, f->vc: 3, f->src: 0, f->dest: 3, input port: 4

Time: 83, routerid: 0,f->id: [13],SwitchUpdate, f->vc: 1, f->src: 3, f->dest: 0, input port: 2, output_port = 4

Time: 83, routerid: 1,f->id: [17],InputQueuing, f->vc: 0, f->src: 0, f->dest: 3, input port: 1

Time: 83, routerid: 1,f->id: [17],RouteUpdate, f->vc: 0, f->src: 0, f->dest: 3, input port: 1

Time: 83, routerid: 2,f->id: [14],InputQueuing, f->vc: 1, f->src: 1, f->dest: 2, input port: 3

Time: 83, routerid: 2,f->id: [14],RouteUpdate, f->vc: 1, f->src: 1, f->dest: 2, input port: 3

Time: 83, routerid: 0,f->id: [13],SendFlits, f->src: 3, f->dest: 0, output port = 4

Time: 84, routerid: 0,f->id: [16],ReceiveFlit, f->vc: 0, f->src: 3, f->dest: 0, input port: 2

Time: 84, routerid: 3,f->id: [18],ReceiveFlit, f->vc: 0, f->src: 2, f->dest: 1, input port: 1

Time: 84, routerid: 0,f->id: [16],InputQueuing, f->vc: 0, f->src: 3, f->dest: 0, input port: 2

Time: 84, routerid: 0,f->id: [16],RouteUpdate, f->vc: 0, f->src: 3, f->dest: 0, input port: 2

Time: 84, routerid: 0,f->id: [15],VCUpdate, f->vc: 1, f->src: 3, f->dest: 0, input port: 2

Time: 84, routerid: 0,f->id: [19],VCUpdate, f->vc: 3, f->src: 0, f->dest: 3, input port: 4

Time: 84, routerid: 1,f->id: [17],VCUpdate, f->vc: 0, f->src: 0, f->dest: 3, input port: 1

Time: 84, routerid: 2,f->id: [14],VCUpdate, f->vc: 1, f->src: 1, f->dest: 2, input port: 3

Time: 84, routerid: 3,f->id: [18],InputQueuing, f->vc: 0, f->src: 2, f->dest: 1, input port: 1

Time: 84, routerid: 3,f->id: [18],RouteUpdate, f->vc: 0, f->src: 2, f->dest: 1, input port: 1

Time: 85, routerid: 1,f->id: [20],ReceiveFlit, f->vc: 2, f->src: 1, f->dest: 2, input port: 4

Time: 85, routerid: 0,f->id: [16],VCUpdate, f->vc: 0, f->src: 3, f->dest: 0, input port: 2

Time: 85, routerid: 1,f->id: [20],InputQueuing, f->vc: 2, f->src: 1, f->dest: 2, input port: 4

Time: 85, routerid: 1,f->id: [20],RouteUpdate, f->vc: 2, f->src: 1, f->dest: 2, input port: 4

Time: 85, routerid: 3,f->id: [18],VCUpdate, f->vc: 0, f->src: 2, f->dest: 1, input port: 1

Time: 86, routerid: 0,f->id: [15],SwitchUpdate, f->vc: 1, f->src: 3, f->dest: 0, input port: 2, output_port = 4

Time: 86, routerid: 0,f->id: [19],SwitchUpdate, f->vc: 0, f->src: 0, f->dest: 3, input port: 4, output_port = 0

Time: 86, routerid: 1,f->id: [20],VCUpdate, f->vc: 2, f->src: 1, f->dest: 2, input port: 4

Time: 86, routerid: 1,f->id: [17],SwitchUpdate, f->vc: 2, f->src: 0, f->dest: 3, input port: 1, output_port = 2

Time: 86, routerid: 2,f->id: [14],SwitchUpdate, f->vc: 1, f->src: 1, f->dest: 2, input port: 3, output_port = 4

Time: 86, routerid: 0,f->id: [19],SendFlits, f->src: 0, f->dest: 3, output port = 0

Time: 86, routerid: 0,f->id: [15],SendFlits, f->src: 3, f->dest: 0, output port = 4

Time: 86, routerid: 1,f->id: [17],SendFlits, f->src: 0, f->dest: 3, output port = 2

Time: 86, routerid: 2,f->id: [14],SendFlits, f->src: 1, f->dest: 2, output port = 4

Time: 87, routerid: 0,f->id: [16],SwitchUpdate, f->vc: 2, f->src: 3, f->dest: 0, input port: 2, output_port = 4

Time: 87, routerid: 3,f->id: [18],SwitchUpdate, f->vc: 2, f->src: 2, f->dest: 1, input port: 1, output_port = 3

Time: 87, routerid: 0,f->id: [16],SendFlits, f->src: 3, f->dest: 0, output port = 4

Time: 87, routerid: 3,f->id: [18],SendFlits, f->src: 2, f->dest: 1, output port = 3

Time: 88, routerid: 2,f->id: [21],ReceiveFlit, f->vc: 3, f->src: 2, f->dest: 1, input port: 4

Time: 88, routerid: 1,f->id: [20],SwitchUpdate, f->vc: 1, f->src: 1, f->dest: 2, input port: 4, output_port = 1

Time: 88, routerid: 2,f->id: [21],InputQueuing, f->vc: 3, f->src: 2, f->dest: 1, input port: 4

Time: 88, routerid: 2,f->id: [21],RouteUpdate, f->vc: 3, f->src: 2, f->dest: 1, input port: 4

Time: 88, routerid: 1,f->id: [20],SendFlits, f->src: 1, f->dest: 2, output port = 1

Time: 89, routerid: 2,f->id: [21],VCUpdate, f->vc: 3, f->src: 2, f->dest: 1, input port: 4

Time: 90, routerid: 1,f->id: [19],ReceiveFlit, f->vc: 0, f->src: 0, f->dest: 3, input port: 1

Time: 90, routerid: 3,f->id: [17],ReceiveFlit, f->vc: 2, f->src: 0, f->dest: 3, input port: 3

Time: 90, routerid: 1,f->id: [19],InputQueuing, f->vc: 0, f->src: 0, f->dest: 3, input port: 1

Time: 90, routerid: 1,f->id: [19],RouteUpdate, f->vc: 0, f->src: 0, f->dest: 3, input port: 1

Time: 90, routerid: 3,f->id: [17],InputQueuing, f->vc: 2, f->src: 0, f->dest: 3, input port: 3

Time: 90, routerid: 3,f->id: [17],RouteUpdate, f->vc: 2, f->src: 0, f->dest: 3, input port: 3

Time: 91, routerid: 1,f->id: [18],ReceiveFlit, f->vc: 2, f->src: 2, f->dest: 1, input port: 2

Time: 91, routerid: 1,f->id: [18],InputQueuing, f->vc: 2, f->src: 2, f->dest: 1, input port: 2

Time: 91, routerid: 1,f->id: [18],RouteUpdate, f->vc: 2, f->src: 2, f->dest: 1, input port: 2

Time: 91, routerid: 1,f->id: [19],VCUpdate, f->vc: 0, f->src: 0, f->dest: 3, input port: 1

Time: 91, routerid: 2,f->id: [21],SwitchUpdate, f->vc: 0, f->src: 2, f->dest: 1, input port: 4, output_port = 0

Time: 91, routerid: 3,f->id: [17],VCUpdate, f->vc: 2, f->src: 0, f->dest: 3, input port: 3

Time: 91, routerid: 2,f->id: [21],SendFlits, f->src: 2, f->dest: 1, output port = 0

Time: 92, routerid: 0,f->id: [20],ReceiveFlit, f->vc: 1, f->src: 1, f->dest: 2, input port: 0

Time: 92, routerid: 0,f->id: [20],InputQueuing, f->vc: 1, f->src: 1, f->dest: 2, input port: 0

Time: 92, routerid: 0,f->id: [20],RouteUpdate, f->vc: 1, f->src: 1, f->dest: 2, input port: 0

Time: 92, routerid: 1,f->id: [18],VCUpdate, f->vc: 2, f->src: 2, f->dest: 1, input port: 2

Time: 93, routerid: 0,f->id: [20],VCUpdate, f->vc: 1, f->src: 1, f->dest: 2, input port: 0

Time: 93, routerid: 1,f->id: [19],SwitchUpdate, f->vc: 3, f->src: 0, f->dest: 3, input port: 1, output_port = 2

Time: 93, routerid: 3,f->id: [17],SwitchUpdate, f->vc: 0, f->src: 0, f->dest: 3, input port: 3, output_port = 4

Time: 93, routerid: 1,f->id: [19],SendFlits, f->src: 0, f->dest: 3, output port = 2

Time: 93, routerid: 3,f->id: [17],SendFlits, f->src: 0, f->dest: 3, output port = 4

Time: 94, routerid: 1,f->id: [18],SwitchUpdate, f->vc: 0, f->src: 2, f->dest: 1, input port: 2, output_port = 4

Time: 94, routerid: 1,f->id: [18],SendFlits, f->src: 2, f->dest: 1, output port = 4

Time: 95, routerid: 3,f->id: [21],ReceiveFlit, f->vc: 0, f->src: 2, f->dest: 1, input port: 1

Time: 95, routerid: 0,f->id: [20],SwitchUpdate, f->vc: 2, f->src: 1, f->dest: 2, input port: 0, output_port = 2

Time: 95, routerid: 3,f->id: [21],InputQueuing, f->vc: 0, f->src: 2, f->dest: 1, input port: 1

Time: 95, routerid: 3,f->id: [21],RouteUpdate, f->vc: 0, f->src: 2, f->dest: 1, input port: 1

Time: 95, routerid: 0,f->id: [20],SendFlits, f->src: 1, f->dest: 2, output port = 2

Time: 96, routerid: 3,f->id: [21],VCUpdate, f->vc: 0, f->src: 2, f->dest: 1, input port: 1

Time: 97, routerid: 3,f->id: [19],ReceiveFlit, f->vc: 3, f->src: 0, f->dest: 3, input port: 3

Time: 97, routerid: 3,f->id: [19],InputQueuing, f->vc: 3, f->src: 0, f->dest: 3, input port: 3

Time: 97, routerid: 3,f->id: [19],RouteUpdate, f->vc: 3, f->src: 0, f->dest: 3, input port: 3

Time: 98, routerid: 1,f->id: [22],ReceiveFlit, f->vc: 3, f->src: 1, f->dest: 2, input port: 4

Time: 98, routerid: 1,f->id: [22],InputQueuing, f->vc: 3, f->src: 1, f->dest: 2, input port: 4

Time: 98, routerid: 1,f->id: [22],RouteUpdate, f->vc: 3, f->src: 1, f->dest: 2, input port: 4

Time: 98, routerid: 3,f->id: [19],VCUpdate, f->vc: 3, f->src: 0, f->dest: 3, input port: 3

Time: 98, routerid: 3,f->id: [21],SwitchUpdate, f->vc: 3, f->src: 2, f->dest: 1, input port: 1, output_port = 3

Time: 98, routerid: 3,f->id: [21],SendFlits, f->src: 2, f->dest: 1, output port = 3

Time: 99, routerid: 2,f->id: [20],ReceiveFlit, f->vc: 2, f->src: 1, f->dest: 2, input port: 3

Time: 99, routerid: 1,f->id: [22],VCUpdate, f->vc: 3, f->src: 1, f->dest: 2, input port: 4

Time: 99, routerid: 2,f->id: [20],InputQueuing, f->vc: 2, f->src: 1, f->dest: 2, input port: 3

Time: 99, routerid: 2,f->id: [20],RouteUpdate, f->vc: 2, f->src: 1, f->dest: 2, input port: 3
0
===== Time: 100 =====
Class 0:
Minimum packet latency = 20
Average packet latency = 20
Maximum packet latency = 20
Minimum network latency = 21
Average network latency = 21
Maximum network latency = 21
Slowest packet = 18
Minimum flit latency = 21
Average flit latency = 21
Maximum flit latency = 21
Slowest flit = 0
Minimum fragmentation = 0
Average fragmentation = 0
Maximum fragmentation = 0
Minimum injected packet rate = 0.04 (at node 0)
Average injected packet rate = 0.0575
Maximum injected packet rate = 0.08 (at node 1)
Minimum accepted packet rate = 0.03 (at node 1)
Average accepted packet rate = 0.0475
Maximum accepted packet rate = 0.07 (at node 0)
Minimum injected flit rate = 0.04 (at node 0)
Average injected flit rate = 0.0575
Maximum injected flit rate = 0.08 (at node 1)
Minimum accepted flit rate = 0.03 (at node 1)
Average accepted flit rate = 0.0475
Maximum accepted flit rate = 0.07 (at node 0)
Total number of injected packets = 23
Total number of injected flits = 23
Average injected packet length = 1
Total number of accepted packets = 19
Total number of accepted flits = 19
Average accepted packet length = 1
Total in-flight flits = 4 (0 measured)
class 0 latency change    = 1
class 0 throughput change = 1

Time: 100, routerid: 2,f->id: [20],VCUpdate, f->vc: 2, f->src: 1, f->dest: 2, input port: 3

Time: 100, routerid: 3,f->id: [19],SwitchUpdate, f->vc: 0, f->src: 0, f->dest: 3, input port: 3, output_port = 4

Time: 100, routerid: 3,f->id: [19],SendFlits, f->src: 0, f->dest: 3, output port = 4

Time: 101, routerid: 1,f->id: [22],SwitchUpdate, f->vc: 1, f->src: 1, f->dest: 2, input port: 4, output_port = 1

Time: 101, routerid: 1,f->id: [22],SendFlits, f->src: 1, f->dest: 2, output port = 1

Time: 102, routerid: 1,f->id: [21],ReceiveFlit, f->vc: 3, f->src: 2, f->dest: 1, input port: 2

Time: 102, routerid: 1,f->id: [21],InputQueuing, f->vc: 3, f->src: 2, f->dest: 1, input port: 2

Time: 102, routerid: 1,f->id: [21],RouteUpdate, f->vc: 3, f->src: 2, f->dest: 1, input port: 2

Time: 102, routerid: 2,f->id: [20],SwitchUpdate, f->vc: 1, f->src: 1, f->dest: 2, input port: 3, output_port = 4

Time: 102, routerid: 2,f->id: [20],SendFlits, f->src: 1, f->dest: 2, output port = 4

Time: 103, routerid: 1,f->id: [21],VCUpdate, f->vc: 3, f->src: 2, f->dest: 1, input port: 2

Time: 104, routerid: 2,f->id: [23],ReceiveFlit, f->vc: 0, f->src: 2, f->dest: 1, input port: 4

Time: 104, routerid: 2,f->id: [23],InputQueuing, f->vc: 0, f->src: 2, f->dest: 1, input port: 4

Time: 104, routerid: 2,f->id: [23],RouteUpdate, f->vc: 0, f->src: 2, f->dest: 1, input port: 4

Time: 105, routerid: 0,f->id: [22],ReceiveFlit, f->vc: 1, f->src: 1, f->dest: 2, input port: 0

Time: 105, routerid: 0,f->id: [22],InputQueuing, f->vc: 1, f->src: 1, f->dest: 2, input port: 0

Time: 105, routerid: 0,f->id: [22],RouteUpdate, f->vc: 1, f->src: 1, f->dest: 2, input port: 0

Time: 105, routerid: 1,f->id: [21],SwitchUpdate, f->vc: 0, f->src: 2, f->dest: 1, input port: 2, output_port = 4

Time: 105, routerid: 2,f->id: [23],VCUpdate, f->vc: 0, f->src: 2, f->dest: 1, input port: 4

Time: 105, routerid: 1,f->id: [21],SendFlits, f->src: 2, f->dest: 1, output port = 4

Time: 106, routerid: 1,f->id: [24],ReceiveFlit, f->vc: 0, f->src: 1, f->dest: 2, input port: 4

Time: 106, routerid: 0,f->id: [22],VCUpdate, f->vc: 1, f->src: 1, f->dest: 2, input port: 0

Time: 106, routerid: 1,f->id: [24],InputQueuing, f->vc: 0, f->src: 1, f->dest: 2, input port: 4

Time: 106, routerid: 1,f->id: [24],RouteUpdate, f->vc: 0, f->src: 1, f->dest: 2, input port: 4

Time: 107, routerid: 1,f->id: [24],VCUpdate, f->vc: 0, f->src: 1, f->dest: 2, input port: 4

Time: 107, routerid: 2,f->id: [23],SwitchUpdate, f->vc: 1, f->src: 2, f->dest: 1, input port: 4, output_port = 0

Time: 107, routerid: 2,f->id: [23],SendFlits, f->src: 2, f->dest: 1, output port = 0

Time: 108, routerid: 0,f->id: [22],SwitchUpdate, f->vc: 3, f->src: 1, f->dest: 2, input port: 0, output_port = 2

Time: 108, routerid: 0,f->id: [22],SendFlits, f->src: 1, f->dest: 2, output port = 2

Time: 109, routerid: 2,f->id: [25],ReceiveFlit, f->vc: 1, f->src: 2, f->dest: 1, input port: 4

Time: 109, routerid: 1,f->id: [24],SwitchUpdate, f->vc: 2, f->src: 1, f->dest: 2, input port: 4, output_port = 1

Time: 109, routerid: 2,f->id: [25],InputQueuing, f->vc: 1, f->src: 2, f->dest: 1, input port: 4

Time: 109, routerid: 2,f->id: [25],RouteUpdate, f->vc: 1, f->src: 2, f->dest: 1, input port: 4

Time: 109, routerid: 1,f->id: [24],SendFlits, f->src: 1, f->dest: 2, output port = 1

Time: 110, routerid: 2,f->id: [25],VCUpdate, f->vc: 1, f->src: 2, f->dest: 1, input port: 4

Time: 111, routerid: 3,f->id: [23],ReceiveFlit, f->vc: 1, f->src: 2, f->dest: 1, input port: 1

Time: 111, routerid: 3,f->id: [23],InputQueuing, f->vc: 1, f->src: 2, f->dest: 1, input port: 1

Time: 111, routerid: 3,f->id: [23],RouteUpdate, f->vc: 1, f->src: 2, f->dest: 1, input port: 1

Time: 112, routerid: 2,f->id: [22],ReceiveFlit, f->vc: 3, f->src: 1, f->dest: 2, input port: 3

Time: 112, routerid: 2,f->id: [22],InputQueuing, f->vc: 3, f->src: 1, f->dest: 2, input port: 3

Time: 112, routerid: 2,f->id: [22],RouteUpdate, f->vc: 3, f->src: 1, f->dest: 2, input port: 3

Time: 112, routerid: 2,f->id: [25],SwitchUpdate, f->vc: 1, f->src: 2, f->dest: 1, input port: 4, output_port = 0

Time: 112, routerid: 3,f->id: [23],VCUpdate, f->vc: 1, f->src: 2, f->dest: 1, input port: 1

Time: 112, routerid: 2,f->id: [25],SendFlits, f->src: 2, f->dest: 1, output port = 0

Time: 113, routerid: 0,f->id: [24],ReceiveFlit, f->vc: 2, f->src: 1, f->dest: 2, input port: 0

Time: 113, routerid: 0,f->id: [24],InputQueuing, f->vc: 2, f->src: 1, f->dest: 2, input port: 0

Time: 113, routerid: 0,f->id: [24],RouteUpdate, f->vc: 2, f->src: 1, f->dest: 2, input port: 0

Time: 113, routerid: 2,f->id: [22],VCUpdate, f->vc: 3, f->src: 1, f->dest: 2, input port: 3

Time: 114, routerid: 0,f->id: [24],VCUpdate, f->vc: 2, f->src: 1, f->dest: 2, input port: 0

Time: 114, routerid: 3,f->id: [23],SwitchUpdate, f->vc: 0, f->src: 2, f->dest: 1, input port: 1, output_port = 3

Time: 114, routerid: 3,f->id: [23],SendFlits, f->src: 2, f->dest: 1, output port = 3

Time: 115, routerid: 2,f->id: [22],SwitchUpdate, f->vc: 1, f->src: 1, f->dest: 2, input port: 3, output_port = 4

Time: 115, routerid: 2,f->id: [22],SendFlits, f->src: 1, f->dest: 2, output port = 4

Time: 116, routerid: 3,f->id: [25],ReceiveFlit, f->vc: 1, f->src: 2, f->dest: 1, input port: 1

Time: 116, routerid: 0,f->id: [24],SwitchUpdate, f->vc: 0, f->src: 1, f->dest: 2, input port: 0, output_port = 2

Time: 116, routerid: 3,f->id: [25],InputQueuing, f->vc: 1, f->src: 2, f->dest: 1, input port: 1

Time: 116, routerid: 3,f->id: [25],RouteUpdate, f->vc: 1, f->src: 2, f->dest: 1, input port: 1

Time: 116, routerid: 0,f->id: [24],SendFlits, f->src: 1, f->dest: 2, output port = 2

Time: 117, routerid: 3,f->id: [25],VCUpdate, f->vc: 1, f->src: 2, f->dest: 1, input port: 1

Time: 118, routerid: 1,f->id: [23],ReceiveFlit, f->vc: 0, f->src: 2, f->dest: 1, input port: 2

Time: 118, routerid: 1,f->id: [23],InputQueuing, f->vc: 0, f->src: 2, f->dest: 1, input port: 2

Time: 118, routerid: 1,f->id: [23],RouteUpdate, f->vc: 0, f->src: 2, f->dest: 1, input port: 2

Time: 119, routerid: 1,f->id: [23],VCUpdate, f->vc: 0, f->src: 2, f->dest: 1, input port: 2

Time: 119, routerid: 3,f->id: [25],SwitchUpdate, f->vc: 1, f->src: 2, f->dest: 1, input port: 1, output_port = 3

Time: 119, routerid: 3,f->id: [25],SendFlits, f->src: 2, f->dest: 1, output port = 3

Time: 120, routerid: 2,f->id: [24],ReceiveFlit, f->vc: 0, f->src: 1, f->dest: 2, input port: 3

Time: 120, routerid: 2,f->id: [24],InputQueuing, f->vc: 0, f->src: 1, f->dest: 2, input port: 3

Time: 120, routerid: 2,f->id: [24],RouteUpdate, f->vc: 0, f->src: 1, f->dest: 2, input port: 3

Time: 121, routerid: 1,f->id: [23],SwitchUpdate, f->vc: 1, f->src: 2, f->dest: 1, input port: 2, output_port = 4

Time: 121, routerid: 2,f->id: [24],VCUpdate, f->vc: 0, f->src: 1, f->dest: 2, input port: 3

Time: 121, routerid: 1,f->id: [23],SendFlits, f->src: 2, f->dest: 1, output port = 4

Time: 123, routerid: 1,f->id: [25],ReceiveFlit, f->vc: 1, f->src: 2, f->dest: 1, input port: 2

Time: 123, routerid: 1,f->id: [25],InputQueuing, f->vc: 1, f->src: 2, f->dest: 1, input port: 2

Time: 123, routerid: 1,f->id: [25],RouteUpdate, f->vc: 1, f->src: 2, f->dest: 1, input port: 2

Time: 123, routerid: 2,f->id: [24],SwitchUpdate, f->vc: 2, f->src: 1, f->dest: 2, input port: 3, output_port = 4

Time: 123, routerid: 2,f->id: [24],SendFlits, f->src: 1, f->dest: 2, output port = 4

Time: 124, routerid: 1,f->id: [25],VCUpdate, f->vc: 1, f->src: 2, f->dest: 1, input port: 2

Time: 125, routerid: 2,f->id: [26],ReceiveFlit, f->vc: 2, f->src: 2, f->dest: 1, input port: 4

Time: 125, routerid: 2,f->id: [26],InputQueuing, f->vc: 2, f->src: 2, f->dest: 1, input port: 4

Time: 125, routerid: 2,f->id: [26],RouteUpdate, f->vc: 2, f->src: 2, f->dest: 1, input port: 4

Time: 126, routerid: 1,f->id: [27],ReceiveFlit, f->vc: 1, f->src: 1, f->dest: 2, input port: 4

Time: 126, routerid: 1,f->id: [27],InputQueuing, f->vc: 1, f->src: 1, f->dest: 2, input port: 4

Time: 126, routerid: 1,f->id: [27],RouteUpdate, f->vc: 1, f->src: 1, f->dest: 2, input port: 4

Time: 126, routerid: 1,f->id: [25],SwitchUpdate, f->vc: 1, f->src: 2, f->dest: 1, input port: 2, output_port = 4

Time: 126, routerid: 2,f->id: [26],VCUpdate, f->vc: 2, f->src: 2, f->dest: 1, input port: 4

Time: 126, routerid: 1,f->id: [25],SendFlits, f->src: 2, f->dest: 1, output port = 4

Time: 127, routerid: 1,f->id: [28],ReceiveFlit, f->vc: 2, f->src: 1, f->dest: 2, input port: 4

Time: 127, routerid: 1,f->id: [28],InputQueuing, f->vc: 2, f->src: 1, f->dest: 2, input port: 4

Time: 127, routerid: 1,f->id: [28],RouteUpdate, f->vc: 2, f->src: 1, f->dest: 2, input port: 4

Time: 127, routerid: 1,f->id: [27],VCUpdate, f->vc: 1, f->src: 1, f->dest: 2, input port: 4

Time: 128, routerid: 1,f->id: [28],VCUpdate, f->vc: 2, f->src: 1, f->dest: 2, input port: 4

Time: 128, routerid: 2,f->id: [26],SwitchUpdate, f->vc: 1, f->src: 2, f->dest: 1, input port: 4, output_port = 0

Time: 128, routerid: 2,f->id: [26],SendFlits, f->src: 2, f->dest: 1, output port = 0

Time: 129, routerid: 1,f->id: [27],SwitchUpdate, f->vc: 2, f->src: 1, f->dest: 2, input port: 4, output_port = 1

Time: 129, routerid: 1,f->id: [27],SendFlits, f->src: 1, f->dest: 2, output port = 1

Time: 130, routerid: 1,f->id: [28],SwitchUpdate, f->vc: 3, f->src: 1, f->dest: 2, input port: 4, output_port = 1

Time: 130, routerid: 1,f->id: [28],SendFlits, f->src: 1, f->dest: 2, output port = 1

Time: 132, routerid: 3,f->id: [26],ReceiveFlit, f->vc: 1, f->src: 2, f->dest: 1, input port: 1

Time: 132, routerid: 3,f->id: [26],InputQueuing, f->vc: 1, f->src: 2, f->dest: 1, input port: 1

Time: 132, routerid: 3,f->id: [26],RouteUpdate, f->vc: 1, f->src: 2, f->dest: 1, input port: 1

Time: 133, routerid: 0,f->id: [27],ReceiveFlit, f->vc: 2, f->src: 1, f->dest: 2, input port: 0

Time: 133, routerid: 0,f->id: [27],InputQueuing, f->vc: 2, f->src: 1, f->dest: 2, input port: 0

Time: 133, routerid: 0,f->id: [27],RouteUpdate, f->vc: 2, f->src: 1, f->dest: 2, input port: 0

Time: 133, routerid: 3,f->id: [26],VCUpdate, f->vc: 1, f->src: 2, f->dest: 1, input port: 1

Time: 134, routerid: 0,f->id: [28],ReceiveFlit, f->vc: 3, f->src: 1, f->dest: 2, input port: 0

Time: 134, routerid: 0,f->id: [29],ReceiveFlit, f->vc: 0, f->src: 0, f->dest: 3, input port: 4

Time: 134, routerid: 0,f->id: [28],InputQueuing, f->vc: 3, f->src: 1, f->dest: 2, input port: 0

Time: 134, routerid: 0,f->id: [29],InputQueuing, f->vc: 0, f->src: 0, f->dest: 3, input port: 4

Time: 134, routerid: 0,f->id: [28],RouteUpdate, f->vc: 3, f->src: 1, f->dest: 2, input port: 0

Time: 134, routerid: 0,f->id: [29],RouteUpdate, f->vc: 0, f->src: 0, f->dest: 3, input port: 4

Time: 134, routerid: 0,f->id: [27],VCUpdate, f->vc: 2, f->src: 1, f->dest: 2, input port: 0

Time: 135, routerid: 2,f->id: [30],ReceiveFlit, f->vc: 3, f->src: 2, f->dest: 1, input port: 4

Time: 135, routerid: 0,f->id: [28],VCUpdate, f->vc: 3, f->src: 1, f->dest: 2, input port: 0

Time: 135, routerid: 0,f->id: [29],VCUpdate, f->vc: 0, f->src: 0, f->dest: 3, input port: 4

Time: 135, routerid: 2,f->id: [30],InputQueuing, f->vc: 3, f->src: 2, f->dest: 1, input port: 4

Time: 135, routerid: 2,f->id: [30],RouteUpdate, f->vc: 3, f->src: 2, f->dest: 1, input port: 4

Time: 135, routerid: 3,f->id: [26],SwitchUpdate, f->vc: 2, f->src: 2, f->dest: 1, input port: 1, output_port = 3

Time: 135, routerid: 3,f->id: [26],SendFlits, f->src: 2, f->dest: 1, output port = 3

Time: 136, routerid: 0,f->id: [27],SwitchUpdate, f->vc: 1, f->src: 1, f->dest: 2, input port: 0, output_port = 2

Time: 136, routerid: 2,f->id: [30],VCUpdate, f->vc: 3, f->src: 2, f->dest: 1, input port: 4

Time: 136, routerid: 0,f->id: [27],SendFlits, f->src: 1, f->dest: 2, output port = 2

Time: 137, routerid: 0,f->id: [28],SwitchUpdate, f->vc: 0, f->src: 1, f->dest: 2, input port: 0, output_port = 2

Time: 137, routerid: 0,f->id: [29],SwitchUpdate, f->vc: 1, f->src: 0, f->dest: 3, input port: 4, output_port = 0

Time: 137, routerid: 0,f->id: [29],SendFlits, f->src: 0, f->dest: 3, output port = 0

Time: 137, routerid: 0,f->id: [28],SendFlits, f->src: 1, f->dest: 2, output port = 2

Time: 138, routerid: 2,f->id: [30],SwitchUpdate, f->vc: 1, f->src: 2, f->dest: 1, input port: 4, output_port = 0

Time: 138, routerid: 2,f->id: [30],SendFlits, f->src: 2, f->dest: 1, output port = 0

Time: 139, routerid: 1,f->id: [26],ReceiveFlit, f->vc: 2, f->src: 2, f->dest: 1, input port: 2

Time: 139, routerid: 1,f->id: [26],InputQueuing, f->vc: 2, f->src: 2, f->dest: 1, input port: 2

Time: 139, routerid: 1,f->id: [26],RouteUpdate, f->vc: 2, f->src: 2, f->dest: 1, input port: 2

Time: 140, routerid: 2,f->id: [27],ReceiveFlit, f->vc: 1, f->src: 1, f->dest: 2, input port: 3

Time: 140, routerid: 1,f->id: [26],VCUpdate, f->vc: 2, f->src: 2, f->dest: 1, input port: 2

Time: 140, routerid: 2,f->id: [27],InputQueuing, f->vc: 1, f->src: 1, f->dest: 2, input port: 3

Time: 140, routerid: 2,f->id: [27],RouteUpdate, f->vc: 1, f->src: 1, f->dest: 2, input port: 3

Time: 141, routerid: 1,f->id: [29],ReceiveFlit, f->vc: 1, f->src: 0, f->dest: 3, input port: 1

Time: 141, routerid: 2,f->id: [28],ReceiveFlit, f->vc: 0, f->src: 1, f->dest: 2, input port: 3

Time: 141, routerid: 1,f->id: [29],InputQueuing, f->vc: 1, f->src: 0, f->dest: 3, input port: 1

Time: 141, routerid: 1,f->id: [29],RouteUpdate, f->vc: 1, f->src: 0, f->dest: 3, input port: 1

Time: 141, routerid: 2,f->id: [28],InputQueuing, f->vc: 0, f->src: 1, f->dest: 2, input port: 3

Time: 141, routerid: 2,f->id: [28],RouteUpdate, f->vc: 0, f->src: 1, f->dest: 2, input port: 3

Time: 141, routerid: 2,f->id: [27],VCUpdate, f->vc: 1, f->src: 1, f->dest: 2, input port: 3

Time: 142, routerid: 3,f->id: [30],ReceiveFlit, f->vc: 1, f->src: 2, f->dest: 1, input port: 1

Time: 142, routerid: 1,f->id: [29],VCUpdate, f->vc: 1, f->src: 0, f->dest: 3, input port: 1

Time: 142, routerid: 1,f->id: [26],SwitchUpdate, f->vc: 1, f->src: 2, f->dest: 1, input port: 2, output_port = 4

Time: 142, routerid: 2,f->id: [28],VCUpdate, f->vc: 0, f->src: 1, f->dest: 2, input port: 3

Time: 142, routerid: 3,f->id: [30],InputQueuing, f->vc: 1, f->src: 2, f->dest: 1, input port: 1

Time: 142, routerid: 3,f->id: [30],RouteUpdate, f->vc: 1, f->src: 2, f->dest: 1, input port: 1

Time: 142, routerid: 1,f->id: [26],SendFlits, f->src: 2, f->dest: 1, output port = 4

Time: 143, routerid: 2,f->id: [27],SwitchUpdate, f->vc: 2, f->src: 1, f->dest: 2, input port: 3, output_port = 4

Time: 143, routerid: 3,f->id: [30],VCUpdate, f->vc: 1, f->src: 2, f->dest: 1, input port: 1

Time: 143, routerid: 2,f->id: [27],SendFlits, f->src: 1, f->dest: 2, output port = 4

Time: 144, routerid: 1,f->id: [29],SwitchUpdate, f->vc: 0, f->src: 0, f->dest: 3, input port: 1, output_port = 2

Time: 144, routerid: 2,f->id: [28],SwitchUpdate, f->vc: 3, f->src: 1, f->dest: 2, input port: 3, output_port = 4

Time: 144, routerid: 1,f->id: [29],SendFlits, f->src: 0, f->dest: 3, output port = 2

Time: 144, routerid: 2,f->id: [28],SendFlits, f->src: 1, f->dest: 2, output port = 4

Time: 145, routerid: 3,f->id: [30],SwitchUpdate, f->vc: 3, f->src: 2, f->dest: 1, input port: 1, output_port = 3

Time: 145, routerid: 3,f->id: [30],SendFlits, f->src: 2, f->dest: 1, output port = 3

Time: 146, routerid: 1,f->id: [31],ReceiveFlit, f->vc: 3, f->src: 1, f->dest: 2, input port: 4

Time: 146, routerid: 1,f->id: [31],InputQueuing, f->vc: 3, f->src: 1, f->dest: 2, input port: 4

Time: 146, routerid: 1,f->id: [31],RouteUpdate, f->vc: 3, f->src: 1, f->dest: 2, input port: 4

Time: 147, routerid: 1,f->id: [31],VCUpdate, f->vc: 3, f->src: 1, f->dest: 2, input port: 4

Time: 148, routerid: 2,f->id: [32],ReceiveFlit, f->vc: 0, f->src: 2, f->dest: 1, input port: 4

Time: 148, routerid: 3,f->id: [29],ReceiveFlit, f->vc: 0, f->src: 0, f->dest: 3, input port: 3

Time: 148, routerid: 2,f->id: [32],InputQueuing, f->vc: 0, f->src: 2, f->dest: 1, input port: 4

Time: 148, routerid: 2,f->id: [32],RouteUpdate, f->vc: 0, f->src: 2, f->dest: 1, input port: 4

Time: 148, routerid: 3,f->id: [29],InputQueuing, f->vc: 0, f->src: 0, f->dest: 3, input port: 3

Time: 148, routerid: 3,f->id: [29],RouteUpdate, f->vc: 0, f->src: 0, f->dest: 3, input port: 3

Time: 149, routerid: 1,f->id: [30],ReceiveFlit, f->vc: 3, f->src: 2, f->dest: 1, input port: 2

Time: 149, routerid: 1,f->id: [30],InputQueuing, f->vc: 3, f->src: 2, f->dest: 1, input port: 2

Time: 149, routerid: 1,f->id: [30],RouteUpdate, f->vc: 3, f->src: 2, f->dest: 1, input port: 2

Time: 149, routerid: 1,f->id: [31],SwitchUpdate, f->vc: 2, f->src: 1, f->dest: 2, input port: 4, output_port = 1

Time: 149, routerid: 2,f->id: [32],VCUpdate, f->vc: 0, f->src: 2, f->dest: 1, input port: 4

Time: 149, routerid: 3,f->id: [29],VCUpdate, f->vc: 0, f->src: 0, f->dest: 3, input port: 3

Time: 149, routerid: 1,f->id: [31],SendFlits, f->src: 1, f->dest: 2, output port = 1

Time: 150, routerid: 1,f->id: [30],VCUpdate, f->vc: 3, f->src: 2, f->dest: 1, input port: 2

Time: 151, routerid: 2,f->id: [32],SwitchUpdate, f->vc: 2, f->src: 2, f->dest: 1, input port: 4, output_port = 0

Time: 151, routerid: 3,f->id: [29],SwitchUpdate, f->vc: 1, f->src: 0, f->dest: 3, input port: 3, output_port = 4

Time: 151, routerid: 2,f->id: [32],SendFlits, f->src: 2, f->dest: 1, output port = 0

Time: 151, routerid: 3,f->id: [29],SendFlits, f->src: 0, f->dest: 3, output port = 4

Time: 152, routerid: 1,f->id: [30],SwitchUpdate, f->vc: 1, f->src: 2, f->dest: 1, input port: 2, output_port = 4

Time: 152, routerid: 1,f->id: [30],SendFlits, f->src: 2, f->dest: 1, output port = 4

Time: 153, routerid: 0,f->id: [31],ReceiveFlit, f->vc: 2, f->src: 1, f->dest: 2, input port: 0

Time: 153, routerid: 0,f->id: [31],InputQueuing, f->vc: 2, f->src: 1, f->dest: 2, input port: 0

Time: 153, routerid: 0,f->id: [31],RouteUpdate, f->vc: 2, f->src: 1, f->dest: 2, input port: 0

Time: 154, routerid: 0,f->id: [31],VCUpdate, f->vc: 2, f->src: 1, f->dest: 2, input port: 0

Time: 155, routerid: 3,f->id: [32],ReceiveFlit, f->vc: 2, f->src: 2, f->dest: 1, input port: 1

Time: 155, routerid: 3,f->id: [32],InputQueuing, f->vc: 2, f->src: 2, f->dest: 1, input port: 1

Time: 155, routerid: 3,f->id: [32],RouteUpdate, f->vc: 2, f->src: 2, f->dest: 1, input port: 1

Time: 156, routerid: 0,f->id: [31],SwitchUpdate, f->vc: 2, f->src: 1, f->dest: 2, input port: 0, output_port = 2

Time: 156, routerid: 3,f->id: [32],VCUpdate, f->vc: 2, f->src: 2, f->dest: 1, input port: 1

Time: 156, routerid: 0,f->id: [31],SendFlits, f->src: 1, f->dest: 2, output port = 2

Time: 158, routerid: 3,f->id: [32],SwitchUpdate, f->vc: 0, f->src: 2, f->dest: 1, input port: 1, output_port = 3

Time: 158, routerid: 3,f->id: [32],SendFlits, f->src: 2, f->dest: 1, output port = 3

Time: 160, routerid: 0,f->id: [33],ReceiveFlit, f->vc: 1, f->src: 0, f->dest: 3, input port: 4

Time: 160, routerid: 2,f->id: [31],ReceiveFlit, f->vc: 2, f->src: 1, f->dest: 2, input port: 3

Time: 160, routerid: 0,f->id: [33],InputQueuing, f->vc: 1, f->src: 0, f->dest: 3, input port: 4

Time: 160, routerid: 0,f->id: [33],RouteUpdate, f->vc: 1, f->src: 0, f->dest: 3, input port: 4

Time: 160, routerid: 2,f->id: [31],InputQueuing, f->vc: 2, f->src: 1, f->dest: 2, input port: 3

Time: 160, routerid: 2,f->id: [31],RouteUpdate, f->vc: 2, f->src: 1, f->dest: 2, input port: 3

Time: 161, routerid: 0,f->id: [33],VCUpdate, f->vc: 1, f->src: 0, f->dest: 3, input port: 4

Time: 161, routerid: 2,f->id: [31],VCUpdate, f->vc: 2, f->src: 1, f->dest: 2, input port: 3

Time: 162, routerid: 1,f->id: [32],ReceiveFlit, f->vc: 0, f->src: 2, f->dest: 1, input port: 2

Time: 162, routerid: 1,f->id: [32],InputQueuing, f->vc: 0, f->src: 2, f->dest: 1, input port: 2

Time: 162, routerid: 1,f->id: [32],RouteUpdate, f->vc: 0, f->src: 2, f->dest: 1, input port: 2

Time: 163, routerid: 0,f->id: [33],SwitchUpdate, f->vc: 1, f->src: 0, f->dest: 3, input port: 4, output_port = 0

Time: 163, routerid: 1,f->id: [32],VCUpdate, f->vc: 0, f->src: 2, f->dest: 1, input port: 2

Time: 163, routerid: 2,f->id: [31],SwitchUpdate, f->vc: 2, f->src: 1, f->dest: 2, input port: 3, output_port = 4

Time: 163, routerid: 0,f->id: [33],SendFlits, f->src: 0, f->dest: 3, output port = 0

Time: 163, routerid: 2,f->id: [31],SendFlits, f->src: 1, f->dest: 2, output port = 4

Time: 164, routerid: 3,f->id: [34],ReceiveFlit, f->vc: 3, f->src: 3, f->dest: 0, input port: 4

Time: 164, routerid: 3,f->id: [34],InputQueuing, f->vc: 3, f->src: 3, f->dest: 0, input port: 4

Time: 164, routerid: 3,f->id: [34],RouteUpdate, f->vc: 3, f->src: 3, f->dest: 0, input port: 4

Time: 165, routerid: 1,f->id: [32],SwitchUpdate, f->vc: 2, f->src: 2, f->dest: 1, input port: 2, output_port = 4

Time: 165, routerid: 3,f->id: [34],VCUpdate, f->vc: 3, f->src: 3, f->dest: 0, input port: 4

Time: 165, routerid: 1,f->id: [32],SendFlits, f->src: 2, f->dest: 1, output port = 4

Time: 167, routerid: 0,f->id: [35],ReceiveFlit, f->vc: 2, f->src: 0, f->dest: 3, input port: 4

Time: 167, routerid: 1,f->id: [33],ReceiveFlit, f->vc: 1, f->src: 0, f->dest: 3, input port: 1

Time: 167, routerid: 2,f->id: [36],ReceiveFlit, f->vc: 1, f->src: 2, f->dest: 1, input port: 4

Time: 167, routerid: 0,f->id: [35],InputQueuing, f->vc: 2, f->src: 0, f->dest: 3, input port: 4

Time: 167, routerid: 0,f->id: [35],RouteUpdate, f->vc: 2, f->src: 0, f->dest: 3, input port: 4

Time: 167, routerid: 1,f->id: [33],InputQueuing, f->vc: 1, f->src: 0, f->dest: 3, input port: 1

Time: 167, routerid: 1,f->id: [33],RouteUpdate, f->vc: 1, f->src: 0, f->dest: 3, input port: 1

Time: 167, routerid: 2,f->id: [36],InputQueuing, f->vc: 1, f->src: 2, f->dest: 1, input port: 4

Time: 167, routerid: 2,f->id: [36],RouteUpdate, f->vc: 1, f->src: 2, f->dest: 1, input port: 4

Time: 167, routerid: 3,f->id: [34],SwitchUpdate, f->vc: 1, f->src: 3, f->dest: 0, input port: 4, output_port = 1

Time: 167, routerid: 3,f->id: [34],SendFlits, f->src: 3, f->dest: 0, output port = 1

Time: 168, routerid: 0,f->id: [35],VCUpdate, f->vc: 2, f->src: 0, f->dest: 3, input port: 4

Time: 168, routerid: 1,f->id: [33],VCUpdate, f->vc: 1, f->src: 0, f->dest: 3, input port: 1

Time: 168, routerid: 2,f->id: [36],VCUpdate, f->vc: 1, f->src: 2, f->dest: 1, input port: 4

Time: 170, routerid: 0,f->id: [35],SwitchUpdate, f->vc: 1, f->src: 0, f->dest: 3, input port: 4, output_port = 0

Time: 170, routerid: 1,f->id: [33],SwitchUpdate, f->vc: 1, f->src: 0, f->dest: 3, input port: 1, output_port = 2

Time: 170, routerid: 2,f->id: [36],SwitchUpdate, f->vc: 2, f->src: 2, f->dest: 1, input port: 4, output_port = 0

Time: 170, routerid: 0,f->id: [35],SendFlits, f->src: 0, f->dest: 3, output port = 0

Time: 170, routerid: 1,f->id: [33],SendFlits, f->src: 0, f->dest: 3, output port = 2

Time: 170, routerid: 2,f->id: [36],SendFlits, f->src: 2, f->dest: 1, output port = 0

Time: 171, routerid: 2,f->id: [34],ReceiveFlit, f->vc: 1, f->src: 3, f->dest: 0, input port: 0

Time: 171, routerid: 2,f->id: [34],InputQueuing, f->vc: 1, f->src: 3, f->dest: 0, input port: 0

Time: 171, routerid: 2,f->id: [34],RouteUpdate, f->vc: 1, f->src: 3, f->dest: 0, input port: 0

Time: 172, routerid: 2,f->id: [34],VCUpdate, f->vc: 1, f->src: 3, f->dest: 0, input port: 0

Time: 173, routerid: 1,f->id: [37],ReceiveFlit, f->vc: 0, f->src: 1, f->dest: 2, input port: 4

Time: 173, routerid: 1,f->id: [37],InputQueuing, f->vc: 0, f->src: 1, f->dest: 2, input port: 4

Time: 173, routerid: 1,f->id: [37],RouteUpdate, f->vc: 0, f->src: 1, f->dest: 2, input port: 4

Time: 174, routerid: 1,f->id: [35],ReceiveFlit, f->vc: 1, f->src: 0, f->dest: 3, input port: 1

Time: 174, routerid: 2,f->id: [38],ReceiveFlit, f->vc: 2, f->src: 2, f->dest: 1, input port: 4

Time: 174, routerid: 3,f->id: [36],ReceiveFlit, f->vc: 2, f->src: 2, f->dest: 1, input port: 1

Time: 174, routerid: 3,f->id: [33],ReceiveFlit, f->vc: 1, f->src: 0, f->dest: 3, input port: 3

Time: 174, routerid: 1,f->id: [35],InputQueuing, f->vc: 1, f->src: 0, f->dest: 3, input port: 1

Time: 174, routerid: 1,f->id: [35],RouteUpdate, f->vc: 1, f->src: 0, f->dest: 3, input port: 1

Time: 174, routerid: 1,f->id: [37],VCUpdate, f->vc: 0, f->src: 1, f->dest: 2, input port: 4

Time: 174, routerid: 2,f->id: [38],InputQueuing, f->vc: 2, f->src: 2, f->dest: 1, input port: 4

Time: 174, routerid: 2,f->id: [38],RouteUpdate, f->vc: 2, f->src: 2, f->dest: 1, input port: 4

Time: 174, routerid: 2,f->id: [34],SwitchUpdate, f->vc: 2, f->src: 3, f->dest: 0, input port: 0, output_port = 3

Time: 174, routerid: 3,f->id: [36],InputQueuing, f->vc: 2, f->src: 2, f->dest: 1, input port: 1

Time: 174, routerid: 3,f->id: [33],InputQueuing, f->vc: 1, f->src: 0, f->dest: 3, input port: 3

Time: 174, routerid: 3,f->id: [36],RouteUpdate, f->vc: 2, f->src: 2, f->dest: 1, input port: 1

Time: 174, routerid: 3,f->id: [33],RouteUpdate, f->vc: 1, f->src: 0, f->dest: 3, input port: 3

Time: 174, routerid: 2,f->id: [34],SendFlits, f->src: 3, f->dest: 0, output port = 3

Time: 175, routerid: 1,f->id: [35],VCUpdate, f->vc: 1, f->src: 0, f->dest: 3, input port: 1

Time: 175, routerid: 2,f->id: [38],VCUpdate, f->vc: 2, f->src: 2, f->dest: 1, input port: 4

Time: 175, routerid: 3,f->id: [36],VCUpdate, f->vc: 2, f->src: 2, f->dest: 1, input port: 1

Time: 175, routerid: 3,f->id: [33],VCUpdate, f->vc: 1, f->src: 0, f->dest: 3, input port: 3

Time: 176, routerid: 1,f->id: [37],SwitchUpdate, f->vc: 3, f->src: 1, f->dest: 2, input port: 4, output_port = 1

Time: 176, routerid: 1,f->id: [37],SendFlits, f->src: 1, f->dest: 2, output port = 1

Time: 177, routerid: 1,f->id: [35],SwitchUpdate, f->vc: 2, f->src: 0, f->dest: 3, input port: 1, output_port = 2

Time: 177, routerid: 2,f->id: [38],SwitchUpdate, f->vc: 2, f->src: 2, f->dest: 1, input port: 4, output_port = 0

Time: 177, routerid: 3,f->id: [36],SwitchUpdate, f->vc: 1, f->src: 2, f->dest: 1, input port: 1, output_port = 3

Time: 177, routerid: 3,f->id: [33],SwitchUpdate, f->vc: 1, f->src: 0, f->dest: 3, input port: 3, output_port = 4

Time: 177, routerid: 1,f->id: [35],SendFlits, f->src: 0, f->dest: 3, output port = 2

Time: 177, routerid: 2,f->id: [38],SendFlits, f->src: 2, f->dest: 1, output port = 0

Time: 177, routerid: 3,f->id: [36],SendFlits, f->src: 2, f->dest: 1, output port = 3

Time: 177, routerid: 3,f->id: [33],SendFlits, f->src: 0, f->dest: 3, output port = 4

Time: 178, routerid: 0,f->id: [34],ReceiveFlit, f->vc: 2, f->src: 3, f->dest: 0, input port: 2

Time: 178, routerid: 0,f->id: [34],InputQueuing, f->vc: 2, f->src: 3, f->dest: 0, input port: 2

Time: 178, routerid: 0,f->id: [34],RouteUpdate, f->vc: 2, f->src: 3, f->dest: 0, input port: 2

Time: 179, routerid: 1,f->id: [39],ReceiveFlit, f->vc: 1, f->src: 1, f->dest: 2, input port: 4

Time: 179, routerid: 0,f->id: [34],VCUpdate, f->vc: 2, f->src: 3, f->dest: 0, input port: 2

Time: 179, routerid: 1,f->id: [39],InputQueuing, f->vc: 1, f->src: 1, f->dest: 2, input port: 4

Time: 179, routerid: 1,f->id: [39],RouteUpdate, f->vc: 1, f->src: 1, f->dest: 2, input port: 4

Time: 180, routerid: 0,f->id: [37],ReceiveFlit, f->vc: 3, f->src: 1, f->dest: 2, input port: 0

Time: 180, routerid: 0,f->id: [37],InputQueuing, f->vc: 3, f->src: 1, f->dest: 2, input port: 0

Time: 180, routerid: 0,f->id: [37],RouteUpdate, f->vc: 3, f->src: 1, f->dest: 2, input port: 0

Time: 180, routerid: 1,f->id: [39],VCUpdate, f->vc: 1, f->src: 1, f->dest: 2, input port: 4

Time: 181, routerid: 1,f->id: [36],ReceiveFlit, f->vc: 1, f->src: 2, f->dest: 1, input port: 2

Time: 181, routerid: 3,f->id: [38],ReceiveFlit, f->vc: 2, f->src: 2, f->dest: 1, input port: 1

Time: 181, routerid: 3,f->id: [35],ReceiveFlit, f->vc: 2, f->src: 0, f->dest: 3, input port: 3

Time: 181, routerid: 0,f->id: [37],VCUpdate, f->vc: 3, f->src: 1, f->dest: 2, input port: 0

Time: 181, routerid: 0,f->id: [34],SwitchUpdate, f->vc: 1, f->src: 3, f->dest: 0, input port: 2, output_port = 4

Time: 181, routerid: 1,f->id: [36],InputQueuing, f->vc: 1, f->src: 2, f->dest: 1, input port: 2

Time: 181, routerid: 1,f->id: [36],RouteUpdate, f->vc: 1, f->src: 2, f->dest: 1, input port: 2

Time: 181, routerid: 3,f->id: [38],InputQueuing, f->vc: 2, f->src: 2, f->dest: 1, input port: 1

Time: 181, routerid: 3,f->id: [35],InputQueuing, f->vc: 2, f->src: 0, f->dest: 3, input port: 3

Time: 181, routerid: 3,f->id: [38],RouteUpdate, f->vc: 2, f->src: 2, f->dest: 1, input port: 1

Time: 181, routerid: 3,f->id: [35],RouteUpdate, f->vc: 2, f->src: 0, f->dest: 3, input port: 3

Time: 181, routerid: 0,f->id: [34],SendFlits, f->src: 3, f->dest: 0, output port = 4

Time: 182, routerid: 1,f->id: [36],VCUpdate, f->vc: 1, f->src: 2, f->dest: 1, input port: 2

Time: 182, routerid: 1,f->id: [39],SwitchUpdate, f->vc: 3, f->src: 1, f->dest: 2, input port: 4, output_port = 1

Time: 182, routerid: 3,f->id: [38],VCUpdate, f->vc: 2, f->src: 2, f->dest: 1, input port: 1

Time: 182, routerid: 3,f->id: [35],VCUpdate, f->vc: 2, f->src: 0, f->dest: 3, input port: 3

Time: 182, routerid: 1,f->id: [39],SendFlits, f->src: 1, f->dest: 2, output port = 1

Time: 183, routerid: 0,f->id: [37],SwitchUpdate, f->vc: 1, f->src: 1, f->dest: 2, input port: 0, output_port = 2

Time: 183, routerid: 0,f->id: [37],SendFlits, f->src: 1, f->dest: 2, output port = 2

Time: 184, routerid: 1,f->id: [36],SwitchUpdate, f->vc: 2, f->src: 2, f->dest: 1, input port: 2, output_port = 4

Time: 184, routerid: 3,f->id: [38],SwitchUpdate, f->vc: 2, f->src: 2, f->dest: 1, input port: 1, output_port = 3

Time: 184, routerid: 3,f->id: [35],SwitchUpdate, f->vc: 1, f->src: 0, f->dest: 3, input port: 3, output_port = 4

Time: 184, routerid: 1,f->id: [36],SendFlits, f->src: 2, f->dest: 1, output port = 4

Time: 184, routerid: 3,f->id: [38],SendFlits, f->src: 2, f->dest: 1, output port = 3

Time: 184, routerid: 3,f->id: [35],SendFlits, f->src: 0, f->dest: 3, output port = 4

Time: 186, routerid: 0,f->id: [39],ReceiveFlit, f->vc: 3, f->src: 1, f->dest: 2, input port: 0

Time: 186, routerid: 0,f->id: [39],InputQueuing, f->vc: 3, f->src: 1, f->dest: 2, input port: 0

Time: 186, routerid: 0,f->id: [39],RouteUpdate, f->vc: 3, f->src: 1, f->dest: 2, input port: 0

Time: 187, routerid: 2,f->id: [37],ReceiveFlit, f->vc: 1, f->src: 1, f->dest: 2, input port: 3

Time: 187, routerid: 0,f->id: [39],VCUpdate, f->vc: 3, f->src: 1, f->dest: 2, input port: 0

Time: 187, routerid: 2,f->id: [37],InputQueuing, f->vc: 1, f->src: 1, f->dest: 2, input port: 3

Time: 187, routerid: 2,f->id: [37],RouteUpdate, f->vc: 1, f->src: 1, f->dest: 2, input port: 3

Time: 188, routerid: 1,f->id: [38],ReceiveFlit, f->vc: 2, f->src: 2, f->dest: 1, input port: 2

Time: 188, routerid: 1,f->id: [38],InputQueuing, f->vc: 2, f->src: 2, f->dest: 1, input port: 2

Time: 188, routerid: 1,f->id: [38],RouteUpdate, f->vc: 2, f->src: 2, f->dest: 1, input port: 2

Time: 188, routerid: 2,f->id: [37],VCUpdate, f->vc: 1, f->src: 1, f->dest: 2, input port: 3

Time: 189, routerid: 0,f->id: [39],SwitchUpdate, f->vc: 2, f->src: 1, f->dest: 2, input port: 0, output_port = 2

Time: 189, routerid: 1,f->id: [38],VCUpdate, f->vc: 2, f->src: 2, f->dest: 1, input port: 2

Time: 189, routerid: 0,f->id: [39],SendFlits, f->src: 1, f->dest: 2, output port = 2

Time: 190, routerid: 2,f->id: [37],SwitchUpdate, f->vc: 3, f->src: 1, f->dest: 2, input port: 3, output_port = 4

Time: 190, routerid: 2,f->id: [37],SendFlits, f->src: 1, f->dest: 2, output port = 4

Time: 191, routerid: 1,f->id: [38],SwitchUpdate, f->vc: 2, f->src: 2, f->dest: 1, input port: 2, output_port = 4

Time: 191, routerid: 1,f->id: [38],SendFlits, f->src: 2, f->dest: 1, output port = 4

Time: 193, routerid: 0,f->id: [40],ReceiveFlit, f->vc: 3, f->src: 0, f->dest: 3, input port: 4

Time: 193, routerid: 1,f->id: [41],ReceiveFlit, f->vc: 2, f->src: 1, f->dest: 2, input port: 4

Time: 193, routerid: 2,f->id: [39],ReceiveFlit, f->vc: 2, f->src: 1, f->dest: 2, input port: 3

Time: 193, routerid: 0,f->id: [40],InputQueuing, f->vc: 3, f->src: 0, f->dest: 3, input port: 4

Time: 193, routerid: 0,f->id: [40],RouteUpdate, f->vc: 3, f->src: 0, f->dest: 3, input port: 4

Time: 193, routerid: 1,f->id: [41],InputQueuing, f->vc: 2, f->src: 1, f->dest: 2, input port: 4

Time: 193, routerid: 1,f->id: [41],RouteUpdate, f->vc: 2, f->src: 1, f->dest: 2, input port: 4

Time: 193, routerid: 2,f->id: [39],InputQueuing, f->vc: 2, f->src: 1, f->dest: 2, input port: 3

Time: 193, routerid: 2,f->id: [39],RouteUpdate, f->vc: 2, f->src: 1, f->dest: 2, input port: 3

Time: 194, routerid: 0,f->id: [40],VCUpdate, f->vc: 3, f->src: 0, f->dest: 3, input port: 4

Time: 194, routerid: 1,f->id: [41],VCUpdate, f->vc: 2, f->src: 1, f->dest: 2, input port: 4

Time: 194, routerid: 2,f->id: [39],VCUpdate, f->vc: 2, f->src: 1, f->dest: 2, input port: 3

Time: 196, routerid: 0,f->id: [40],SwitchUpdate, f->vc: 1, f->src: 0, f->dest: 3, input port: 4, output_port = 0

Time: 196, routerid: 1,f->id: [41],SwitchUpdate, f->vc: 0, f->src: 1, f->dest: 2, input port: 4, output_port = 1

Time: 196, routerid: 2,f->id: [39],SwitchUpdate, f->vc: 3, f->src: 1, f->dest: 2, input port: 3, output_port = 4

Time: 196, routerid: 0,f->id: [40],SendFlits, f->src: 0, f->dest: 3, output port = 0

Time: 196, routerid: 1,f->id: [41],SendFlits, f->src: 1, f->dest: 2, output port = 1

Time: 196, routerid: 2,f->id: [39],SendFlits, f->src: 1, f->dest: 2, output port = 4
0
===== Time: 200 =====
Class 0:
Minimum packet latency = 20
Average packet latency = 20
Maximum packet latency = 20
Minimum network latency = 21
Average network latency = 21
Maximum network latency = 21
Slowest packet = 39
Minimum flit latency = 21
Average flit latency = 21
Maximum flit latency = 21
Slowest flit = 0
Minimum fragmentation = 0
Average fragmentation = 0
Maximum fragmentation = 0
Minimum injected packet rate = 0.04 (at node 3)
Average injected packet rate = 0.05375
Maximum injected packet rate = 0.075 (at node 1)
Minimum accepted packet rate = 0.035 (at node 3)
Average accepted packet rate = 0.05
Maximum accepted packet rate = 0.07 (at node 2)
Minimum injected flit rate = 0.04 (at node 3)
Average injected flit rate = 0.05375
Maximum injected flit rate = 0.075 (at node 1)
Minimum accepted flit rate = 0.035 (at node 3)
Average accepted flit rate = 0.05
Maximum accepted flit rate = 0.07 (at node 2)
Total number of injected packets = 43
Total number of injected flits = 43
Average injected packet length = 1
Total number of accepted packets = 40
Total number of accepted flits = 40
Average accepted packet length = 1
Total in-flight flits = 3 (0 measured)
class 0 latency change    = 0
class 0 throughput change = 0.05

Time: 200, routerid: 0,f->id: [41],ReceiveFlit, f->vc: 0, f->src: 1, f->dest: 2, input port: 0

Time: 200, routerid: 0,f->id: [42],ReceiveFlit, f->vc: 0, f->src: 0, f->dest: 3, input port: 4

Time: 200, routerid: 1,f->id: [40],ReceiveFlit, f->vc: 1, f->src: 0, f->dest: 3, input port: 1

Time: 200, routerid: 0,f->id: [41],InputQueuing, f->vc: 0, f->src: 1, f->dest: 2, input port: 0

Time: 200, routerid: 0,f->id: [42],InputQueuing, f->vc: 0, f->src: 0, f->dest: 3, input port: 4

Time: 200, routerid: 0,f->id: [41],RouteUpdate, f->vc: 0, f->src: 1, f->dest: 2, input port: 0

Time: 200, routerid: 0,f->id: [42],RouteUpdate, f->vc: 0, f->src: 0, f->dest: 3, input port: 4

Time: 200, routerid: 1,f->id: [40],InputQueuing, f->vc: 1, f->src: 0, f->dest: 3, input port: 1

Time: 200, routerid: 1,f->id: [40],RouteUpdate, f->vc: 1, f->src: 0, f->dest: 3, input port: 1

Time: 201, routerid: 0,f->id: [41],VCUpdate, f->vc: 0, f->src: 1, f->dest: 2, input port: 0

Time: 201, routerid: 0,f->id: [42],VCUpdate, f->vc: 0, f->src: 0, f->dest: 3, input port: 4

Time: 201, routerid: 1,f->id: [40],VCUpdate, f->vc: 1, f->src: 0, f->dest: 3, input port: 1

Time: 203, routerid: 0,f->id: [41],SwitchUpdate, f->vc: 0, f->src: 1, f->dest: 2, input port: 0, output_port = 2

Time: 203, routerid: 0,f->id: [42],SwitchUpdate, f->vc: 2, f->src: 0, f->dest: 3, input port: 4, output_port = 0

Time: 203, routerid: 1,f->id: [40],SwitchUpdate, f->vc: 3, f->src: 0, f->dest: 3, input port: 1, output_port = 2

Time: 203, routerid: 0,f->id: [42],SendFlits, f->src: 0, f->dest: 3, output port = 0

Time: 203, routerid: 0,f->id: [41],SendFlits, f->src: 1, f->dest: 2, output port = 2

Time: 203, routerid: 1,f->id: [40],SendFlits, f->src: 0, f->dest: 3, output port = 2

Time: 206, routerid: 2,f->id: [43],ReceiveFlit, f->vc: 3, f->src: 2, f->dest: 1, input port: 4

Time: 206, routerid: 2,f->id: [43],InputQueuing, f->vc: 3, f->src: 2, f->dest: 1, input port: 4

Time: 206, routerid: 2,f->id: [43],RouteUpdate, f->vc: 3, f->src: 2, f->dest: 1, input port: 4

Time: 207, routerid: 1,f->id: [42],ReceiveFlit, f->vc: 2, f->src: 0, f->dest: 3, input port: 1

Time: 207, routerid: 2,f->id: [41],ReceiveFlit, f->vc: 0, f->src: 1, f->dest: 2, input port: 3

Time: 207, routerid: 3,f->id: [40],ReceiveFlit, f->vc: 3, f->src: 0, f->dest: 3, input port: 3

Time: 207, routerid: 1,f->id: [42],InputQueuing, f->vc: 2, f->src: 0, f->dest: 3, input port: 1

Time: 207, routerid: 1,f->id: [42],RouteUpdate, f->vc: 2, f->src: 0, f->dest: 3, input port: 1

Time: 207, routerid: 2,f->id: [41],InputQueuing, f->vc: 0, f->src: 1, f->dest: 2, input port: 3

Time: 207, routerid: 2,f->id: [41],RouteUpdate, f->vc: 0, f->src: 1, f->dest: 2, input port: 3

Time: 207, routerid: 2,f->id: [43],VCUpdate, f->vc: 3, f->src: 2, f->dest: 1, input port: 4

Time: 207, routerid: 3,f->id: [40],InputQueuing, f->vc: 3, f->src: 0, f->dest: 3, input port: 3

Time: 207, routerid: 3,f->id: [40],RouteUpdate, f->vc: 3, f->src: 0, f->dest: 3, input port: 3

Time: 208, routerid: 1,f->id: [44],ReceiveFlit, f->vc: 3, f->src: 1, f->dest: 2, input port: 4

Time: 208, routerid: 1,f->id: [44],InputQueuing, f->vc: 3, f->src: 1, f->dest: 2, input port: 4

Time: 208, routerid: 1,f->id: [44],RouteUpdate, f->vc: 3, f->src: 1, f->dest: 2, input port: 4

Time: 208, routerid: 1,f->id: [42],VCUpdate, f->vc: 2, f->src: 0, f->dest: 3, input port: 1

Time: 208, routerid: 2,f->id: [41],VCUpdate, f->vc: 0, f->src: 1, f->dest: 2, input port: 3

Time: 208, routerid: 3,f->id: [40],VCUpdate, f->vc: 3, f->src: 0, f->dest: 3, input port: 3

Time: 209, routerid: 1,f->id: [44],VCUpdate, f->vc: 3, f->src: 1, f->dest: 2, input port: 4

Time: 209, routerid: 2,f->id: [43],SwitchUpdate, f->vc: 2, f->src: 2, f->dest: 1, input port: 4, output_port = 0

Time: 209, routerid: 2,f->id: [43],SendFlits, f->src: 2, f->dest: 1, output port = 0

Time: 210, routerid: 1,f->id: [42],SwitchUpdate, f->vc: 0, f->src: 0, f->dest: 3, input port: 1, output_port = 2

Time: 210, routerid: 2,f->id: [41],SwitchUpdate, f->vc: 0, f->src: 1, f->dest: 2, input port: 3, output_port = 4

Time: 210, routerid: 3,f->id: [40],SwitchUpdate, f->vc: 1, f->src: 0, f->dest: 3, input port: 3, output_port = 4

Time: 210, routerid: 1,f->id: [42],SendFlits, f->src: 0, f->dest: 3, output port = 2

Time: 210, routerid: 2,f->id: [41],SendFlits, f->src: 1, f->dest: 2, output port = 4

Time: 210, routerid: 3,f->id: [40],SendFlits, f->src: 0, f->dest: 3, output port = 4

Time: 211, routerid: 1,f->id: [44],SwitchUpdate, f->vc: 3, f->src: 1, f->dest: 2, input port: 4, output_port = 1

Time: 211, routerid: 1,f->id: [44],SendFlits, f->src: 1, f->dest: 2, output port = 1

Time: 213, routerid: 3,f->id: [43],ReceiveFlit, f->vc: 2, f->src: 2, f->dest: 1, input port: 1

Time: 213, routerid: 3,f->id: [43],InputQueuing, f->vc: 2, f->src: 2, f->dest: 1, input port: 1

Time: 213, routerid: 3,f->id: [43],RouteUpdate, f->vc: 2, f->src: 2, f->dest: 1, input port: 1

Time: 214, routerid: 3,f->id: [42],ReceiveFlit, f->vc: 0, f->src: 0, f->dest: 3, input port: 3

Time: 214, routerid: 3,f->id: [42],InputQueuing, f->vc: 0, f->src: 0, f->dest: 3, input port: 3

Time: 214, routerid: 3,f->id: [42],RouteUpdate, f->vc: 0, f->src: 0, f->dest: 3, input port: 3

Time: 214, routerid: 3,f->id: [43],VCUpdate, f->vc: 2, f->src: 2, f->dest: 1, input port: 1

Time: 215, routerid: 0,f->id: [44],ReceiveFlit, f->vc: 3, f->src: 1, f->dest: 2, input port: 0

Time: 215, routerid: 0,f->id: [44],InputQueuing, f->vc: 3, f->src: 1, f->dest: 2, input port: 0

Time: 215, routerid: 0,f->id: [44],RouteUpdate, f->vc: 3, f->src: 1, f->dest: 2, input port: 0

Time: 215, routerid: 3,f->id: [42],VCUpdate, f->vc: 0, f->src: 0, f->dest: 3, input port: 3

Time: 216, routerid: 0,f->id: [44],VCUpdate, f->vc: 3, f->src: 1, f->dest: 2, input port: 0

Time: 216, routerid: 3,f->id: [43],SwitchUpdate, f->vc: 3, f->src: 2, f->dest: 1, input port: 1, output_port = 3

Time: 216, routerid: 3,f->id: [43],SendFlits, f->src: 2, f->dest: 1, output port = 3

Time: 217, routerid: 3,f->id: [45],ReceiveFlit, f->vc: 0, f->src: 3, f->dest: 0, input port: 4

Time: 217, routerid: 3,f->id: [45],InputQueuing, f->vc: 0, f->src: 3, f->dest: 0, input port: 4

Time: 217, routerid: 3,f->id: [45],RouteUpdate, f->vc: 0, f->src: 3, f->dest: 0, input port: 4

Time: 217, routerid: 3,f->id: [42],SwitchUpdate, f->vc: 2, f->src: 0, f->dest: 3, input port: 3, output_port = 4

[...]

Time: 967, routerid: 3,f->id: [163],SwitchUpdate, f->vc: 2, f->src: 3, f->dest: 0, input port: 4, output_port = 1

Time: 967, routerid: 3,f->id: [163],SendFlits, f->src: 3, f->dest: 0, output port = 1

Time: 968, routerid: 0,f->id: [161],VCUpdate, f->vc: 0, f->src: 3, f->dest: 0, input port: 2

Time: 969, routerid: 2,f->id: [164],ReceiveFlit, f->vc: 0, f->src: 2, f->dest: 1, input port: 4

Time: 969, routerid: 1,f->id: [162],SwitchUpdate, f->vc: 2, f->src: 0, f->dest: 3, input port: 1, output_port = 2

Time: 969, routerid: 2,f->id: [164],InputQueuing, f->vc: 0, f->src: 2, f->dest: 1, input port: 4

Time: 969, routerid: 2,f->id: [164],RouteUpdate, f->vc: 0, f->src: 2, f->dest: 1, input port: 4

Time: 969, routerid: 3,f->id: [160],SwitchUpdate, f->vc: 1, f->src: 0, f->dest: 3, input port: 3, output_port = 4

Time: 969, routerid: 1,f->id: [162],SendFlits, f->src: 0, f->dest: 3, output port = 2

Time: 969, routerid: 3,f->id: [160],SendFlits, f->src: 0, f->dest: 3, output port = 4

Time: 970, routerid: 0,f->id: [161],SwitchUpdate, f->vc: 3, f->src: 3, f->dest: 0, input port: 2, output_port = 4

Time: 970, routerid: 2,f->id: [164],VCUpdate, f->vc: 0, f->src: 2, f->dest: 1, input port: 4

Time: 970, routerid: 0,f->id: [161],SendFlits, f->src: 3, f->dest: 0, output port = 4

Time: 971, routerid: 2,f->id: [163],ReceiveFlit, f->vc: 2, f->src: 3, f->dest: 0, input port: 0

Time: 971, routerid: 2,f->id: [163],InputQueuing, f->vc: 2, f->src: 3, f->dest: 0, input port: 0

Time: 971, routerid: 2,f->id: [163],RouteUpdate, f->vc: 2, f->src: 3, f->dest: 0, input port: 0

Time: 972, routerid: 2,f->id: [163],VCUpdate, f->vc: 2, f->src: 3, f->dest: 0, input port: 0

Time: 972, routerid: 2,f->id: [164],SwitchUpdate, f->vc: 1, f->src: 2, f->dest: 1, input port: 4, output_port = 0

Time: 972, routerid: 2,f->id: [164],SendFlits, f->src: 2, f->dest: 1, output port = 0

Time: 973, routerid: 3,f->id: [162],ReceiveFlit, f->vc: 2, f->src: 0, f->dest: 3, input port: 3

Time: 973, routerid: 3,f->id: [162],InputQueuing, f->vc: 2, f->src: 0, f->dest: 3, input port: 3

Time: 973, routerid: 3,f->id: [162],RouteUpdate, f->vc: 2, f->src: 0, f->dest: 3, input port: 3

Time: 974, routerid: 2,f->id: [163],SwitchUpdate, f->vc: 3, f->src: 3, f->dest: 0, input port: 0, output_port = 3

Time: 974, routerid: 3,f->id: [162],VCUpdate, f->vc: 2, f->src: 0, f->dest: 3, input port: 3

Time: 974, routerid: 2,f->id: [163],SendFlits, f->src: 3, f->dest: 0, output port = 3

Time: 976, routerid: 3,f->id: [164],ReceiveFlit, f->vc: 1, f->src: 2, f->dest: 1, input port: 1

Time: 976, routerid: 3,f->id: [164],InputQueuing, f->vc: 1, f->src: 2, f->dest: 1, input port: 1

Time: 976, routerid: 3,f->id: [164],RouteUpdate, f->vc: 1, f->src: 2, f->dest: 1, input port: 1

Time: 976, routerid: 3,f->id: [162],SwitchUpdate, f->vc: 1, f->src: 0, f->dest: 3, input port: 3, output_port = 4

Time: 976, routerid: 3,f->id: [162],SendFlits, f->src: 0, f->dest: 3, output port = 4

Time: 977, routerid: 3,f->id: [164],VCUpdate, f->vc: 1, f->src: 2, f->dest: 1, input port: 1

Time: 978, routerid: 0,f->id: [163],ReceiveFlit, f->vc: 3, f->src: 3, f->dest: 0, input port: 2

Time: 978, routerid: 0,f->id: [163],InputQueuing, f->vc: 3, f->src: 3, f->dest: 0, input port: 2

Time: 978, routerid: 0,f->id: [163],RouteUpdate, f->vc: 3, f->src: 3, f->dest: 0, input port: 2

Time: 979, routerid: 1,f->id: [165],ReceiveFlit, f->vc: 2, f->src: 1, f->dest: 2, input port: 4

Time: 979, routerid: 3,f->id: [166],ReceiveFlit, f->vc: 0, f->src: 3, f->dest: 0, input port: 4

Time: 979, routerid: 0,f->id: [163],VCUpdate, f->vc: 3, f->src: 3, f->dest: 0, input port: 2

Time: 979, routerid: 1,f->id: [165],InputQueuing, f->vc: 2, f->src: 1, f->dest: 2, input port: 4

Time: 979, routerid: 1,f->id: [165],RouteUpdate, f->vc: 2, f->src: 1, f->dest: 2, input port: 4

Time: 979, routerid: 3,f->id: [166],InputQueuing, f->vc: 0, f->src: 3, f->dest: 0, input port: 4

Time: 979, routerid: 3,f->id: [166],RouteUpdate, f->vc: 0, f->src: 3, f->dest: 0, input port: 4

Time: 979, routerid: 3,f->id: [164],SwitchUpdate, f->vc: 0, f->src: 2, f->dest: 1, input port: 1, output_port = 3

Time: 979, routerid: 3,f->id: [164],SendFlits, f->src: 2, f->dest: 1, output port = 3

Time: 980, routerid: 3,f->id: [167],ReceiveFlit, f->vc: 1, f->src: 3, f->dest: 0, input port: 4

Time: 980, routerid: 1,f->id: [165],VCUpdate, f->vc: 2, f->src: 1, f->dest: 2, input port: 4

Time: 980, routerid: 3,f->id: [167],InputQueuing, f->vc: 1, f->src: 3, f->dest: 0, input port: 4

Time: 980, routerid: 3,f->id: [167],RouteUpdate, f->vc: 1, f->src: 3, f->dest: 0, input port: 4

Time: 980, routerid: 3,f->id: [166],VCUpdate, f->vc: 0, f->src: 3, f->dest: 0, input port: 4

Time: 981, routerid: 0,f->id: [168],ReceiveFlit, f->vc: 2, f->src: 0, f->dest: 3, input port: 4

Time: 981, routerid: 0,f->id: [168],InputQueuing, f->vc: 2, f->src: 0, f->dest: 3, input port: 4

Time: 981, routerid: 0,f->id: [168],RouteUpdate, f->vc: 2, f->src: 0, f->dest: 3, input port: 4

Time: 981, routerid: 0,f->id: [163],SwitchUpdate, f->vc: 1, f->src: 3, f->dest: 0, input port: 2, output_port = 4

Time: 981, routerid: 3,f->id: [167],VCUpdate, f->vc: 1, f->src: 3, f->dest: 0, input port: 4

Time: 981, routerid: 0,f->id: [163],SendFlits, f->src: 3, f->dest: 0, output port = 4

Time: 982, routerid: 0,f->id: [168],VCUpdate, f->vc: 2, f->src: 0, f->dest: 3, input port: 4

Time: 982, routerid: 1,f->id: [165],SwitchUpdate, f->vc: 0, f->src: 1, f->dest: 2, input port: 4, output_port = 1

Time: 982, routerid: 3,f->id: [166],SwitchUpdate, f->vc: 3, f->src: 3, f->dest: 0, input port: 4, output_port = 1

Time: 982, routerid: 1,f->id: [165],SendFlits, f->src: 1, f->dest: 2, output port = 1

Time: 982, routerid: 3,f->id: [166],SendFlits, f->src: 3, f->dest: 0, output port = 1

Time: 983, routerid: 1,f->id: [164],ReceiveFlit, f->vc: 0, f->src: 2, f->dest: 1, input port: 2

Time: 983, routerid: 1,f->id: [164],InputQueuing, f->vc: 0, f->src: 2, f->dest: 1, input port: 2

Time: 983, routerid: 1,f->id: [164],RouteUpdate, f->vc: 0, f->src: 2, f->dest: 1, input port: 2

Time: 983, routerid: 3,f->id: [167],SwitchUpdate, f->vc: 0, f->src: 3, f->dest: 0, input port: 4, output_port = 1

Time: 983, routerid: 3,f->id: [167],SendFlits, f->src: 3, f->dest: 0, output port = 1

Time: 984, routerid: 0,f->id: [168],SwitchUpdate, f->vc: 1, f->src: 0, f->dest: 3, input port: 4, output_port = 0

Time: 984, routerid: 1,f->id: [164],VCUpdate, f->vc: 0, f->src: 2, f->dest: 1, input port: 2

Time: 984, routerid: 0,f->id: [168],SendFlits, f->src: 0, f->dest: 3, output port = 0

Time: 986, routerid: 0,f->id: [165],ReceiveFlit, f->vc: 0, f->src: 1, f->dest: 2, input port: 0

Time: 986, routerid: 2,f->id: [166],ReceiveFlit, f->vc: 3, f->src: 3, f->dest: 0, input port: 0

Time: 986, routerid: 0,f->id: [165],InputQueuing, f->vc: 0, f->src: 1, f->dest: 2, input port: 0

Time: 986, routerid: 0,f->id: [165],RouteUpdate, f->vc: 0, f->src: 1, f->dest: 2, input port: 0

Time: 986, routerid: 1,f->id: [164],SwitchUpdate, f->vc: 1, f->src: 2, f->dest: 1, input port: 2, output_port = 4

Time: 986, routerid: 2,f->id: [166],InputQueuing, f->vc: 3, f->src: 3, f->dest: 0, input port: 0

Time: 986, routerid: 2,f->id: [166],RouteUpdate, f->vc: 3, f->src: 3, f->dest: 0, input port: 0

Time: 986, routerid: 1,f->id: [164],SendFlits, f->src: 2, f->dest: 1, output port = 4

Time: 987, routerid: 2,f->id: [167],ReceiveFlit, f->vc: 0, f->src: 3, f->dest: 0, input port: 0

Time: 987, routerid: 2,f->id: [169],ReceiveFlit, f->vc: 1, f->src: 2, f->dest: 1, input port: 4

Time: 987, routerid: 0,f->id: [165],VCUpdate, f->vc: 0, f->src: 1, f->dest: 2, input port: 0

Time: 987, routerid: 2,f->id: [167],InputQueuing, f->vc: 0, f->src: 3, f->dest: 0, input port: 0

Time: 987, routerid: 2,f->id: [169],InputQueuing, f->vc: 1, f->src: 2, f->dest: 1, input port: 4

Time: 987, routerid: 2,f->id: [167],RouteUpdate, f->vc: 0, f->src: 3, f->dest: 0, input port: 0

Time: 987, routerid: 2,f->id: [169],RouteUpdate, f->vc: 1, f->src: 2, f->dest: 1, input port: 4

Time: 987, routerid: 2,f->id: [166],VCUpdate, f->vc: 3, f->src: 3, f->dest: 0, input port: 0

Time: 988, routerid: 1,f->id: [168],ReceiveFlit, f->vc: 1, f->src: 0, f->dest: 3, input port: 1

Time: 988, routerid: 3,f->id: [170],ReceiveFlit, f->vc: 2, f->src: 3, f->dest: 0, input port: 4

Time: 988, routerid: 1,f->id: [168],InputQueuing, f->vc: 1, f->src: 0, f->dest: 3, input port: 1

Time: 988, routerid: 1,f->id: [168],RouteUpdate, f->vc: 1, f->src: 0, f->dest: 3, input port: 1

Time: 988, routerid: 2,f->id: [167],VCUpdate, f->vc: 0, f->src: 3, f->dest: 0, input port: 0

Time: 988, routerid: 2,f->id: [169],VCUpdate, f->vc: 1, f->src: 2, f->dest: 1, input port: 4

Time: 988, routerid: 3,f->id: [170],InputQueuing, f->vc: 2, f->src: 3, f->dest: 0, input port: 4

Time: 988, routerid: 3,f->id: [170],RouteUpdate, f->vc: 2, f->src: 3, f->dest: 0, input port: 4

Time: 989, routerid: 1,f->id: [171],ReceiveFlit, f->vc: 3, f->src: 1, f->dest: 2, input port: 4

Time: 989, routerid: 0,f->id: [165],SwitchUpdate, f->vc: 0, f->src: 1, f->dest: 2, input port: 0, output_port = 2

Time: 989, routerid: 1,f->id: [171],InputQueuing, f->vc: 3, f->src: 1, f->dest: 2, input port: 4

Time: 989, routerid: 1,f->id: [171],RouteUpdate, f->vc: 3, f->src: 1, f->dest: 2, input port: 4

Time: 989, routerid: 1,f->id: [168],VCUpdate, f->vc: 1, f->src: 0, f->dest: 3, input port: 1

Time: 989, routerid: 2,f->id: [166],SwitchUpdate, f->vc: 1, f->src: 3, f->dest: 0, input port: 0, output_port = 3

Time: 989, routerid: 3,f->id: [170],VCUpdate, f->vc: 2, f->src: 3, f->dest: 0, input port: 4

Time: 989, routerid: 0,f->id: [165],SendFlits, f->src: 1, f->dest: 2, output port = 2

Time: 989, routerid: 2,f->id: [166],SendFlits, f->src: 3, f->dest: 0, output port = 3

Time: 990, routerid: 1,f->id: [171],VCUpdate, f->vc: 3, f->src: 1, f->dest: 2, input port: 4

Time: 990, routerid: 2,f->id: [167],SwitchUpdate, f->vc: 0, f->src: 3, f->dest: 0, input port: 0, output_port = 3

Time: 990, routerid: 2,f->id: [169],SwitchUpdate, f->vc: 1, f->src: 2, f->dest: 1, input port: 4, output_port = 0

Time: 990, routerid: 2,f->id: [169],SendFlits, f->src: 2, f->dest: 1, output port = 0

Time: 990, routerid: 2,f->id: [167],SendFlits, f->src: 3, f->dest: 0, output port = 3

Time: 991, routerid: 1,f->id: [168],SwitchUpdate, f->vc: 3, f->src: 0, f->dest: 3, input port: 1, output_port = 2

Time: 991, routerid: 3,f->id: [170],SwitchUpdate, f->vc: 0, f->src: 3, f->dest: 0, input port: 4, output_port = 1

Time: 991, routerid: 1,f->id: [168],SendFlits, f->src: 0, f->dest: 3, output port = 2

Time: 991, routerid: 3,f->id: [170],SendFlits, f->src: 3, f->dest: 0, output port = 1

Time: 992, routerid: 1,f->id: [171],SwitchUpdate, f->vc: 3, f->src: 1, f->dest: 2, input port: 4, output_port = 1

Time: 992, routerid: 1,f->id: [171],SendFlits, f->src: 1, f->dest: 2, output port = 1

Time: 993, routerid: 0,f->id: [166],ReceiveFlit, f->vc: 1, f->src: 3, f->dest: 0, input port: 2

Time: 993, routerid: 2,f->id: [165],ReceiveFlit, f->vc: 0, f->src: 1, f->dest: 2, input port: 3

Time: 993, routerid: 0,f->id: [166],InputQueuing, f->vc: 1, f->src: 3, f->dest: 0, input port: 2

Time: 993, routerid: 0,f->id: [166],RouteUpdate, f->vc: 1, f->src: 3, f->dest: 0, input port: 2

Time: 993, routerid: 2,f->id: [165],InputQueuing, f->vc: 0, f->src: 1, f->dest: 2, input port: 3

Time: 993, routerid: 2,f->id: [165],RouteUpdate, f->vc: 0, f->src: 1, f->dest: 2, input port: 3

Time: 994, routerid: 0,f->id: [167],ReceiveFlit, f->vc: 0, f->src: 3, f->dest: 0, input port: 2

Time: 994, routerid: 3,f->id: [169],ReceiveFlit, f->vc: 1, f->src: 2, f->dest: 1, input port: 1

Time: 994, routerid: 0,f->id: [167],InputQueuing, f->vc: 0, f->src: 3, f->dest: 0, input port: 2

Time: 994, routerid: 0,f->id: [167],RouteUpdate, f->vc: 0, f->src: 3, f->dest: 0, input port: 2

Time: 994, routerid: 0,f->id: [166],VCUpdate, f->vc: 1, f->src: 3, f->dest: 0, input port: 2

Time: 994, routerid: 2,f->id: [165],VCUpdate, f->vc: 0, f->src: 1, f->dest: 2, input port: 3

Time: 994, routerid: 3,f->id: [169],InputQueuing, f->vc: 1, f->src: 2, f->dest: 1, input port: 1

Time: 994, routerid: 3,f->id: [169],RouteUpdate, f->vc: 1, f->src: 2, f->dest: 1, input port: 1

Time: 995, routerid: 2,f->id: [170],ReceiveFlit, f->vc: 0, f->src: 3, f->dest: 0, input port: 0

Time: 995, routerid: 3,f->id: [168],ReceiveFlit, f->vc: 3, f->src: 0, f->dest: 3, input port: 3

Time: 995, routerid: 0,f->id: [167],VCUpdate, f->vc: 0, f->src: 3, f->dest: 0, input port: 2

Time: 995, routerid: 2,f->id: [170],InputQueuing, f->vc: 0, f->src: 3, f->dest: 0, input port: 0

Time: 995, routerid: 2,f->id: [170],RouteUpdate, f->vc: 0, f->src: 3, f->dest: 0, input port: 0

Time: 995, routerid: 3,f->id: [168],InputQueuing, f->vc: 3, f->src: 0, f->dest: 3, input port: 3

Time: 995, routerid: 3,f->id: [168],RouteUpdate, f->vc: 3, f->src: 0, f->dest: 3, input port: 3

Time: 995, routerid: 3,f->id: [169],VCUpdate, f->vc: 1, f->src: 2, f->dest: 1, input port: 1

Time: 996, routerid: 0,f->id: [171],ReceiveFlit, f->vc: 3, f->src: 1, f->dest: 2, input port: 0

Time: 996, routerid: 0,f->id: [171],InputQueuing, f->vc: 3, f->src: 1, f->dest: 2, input port: 0

Time: 996, routerid: 0,f->id: [171],RouteUpdate, f->vc: 3, f->src: 1, f->dest: 2, input port: 0

Time: 996, routerid: 0,f->id: [166],SwitchUpdate, f->vc: 3, f->src: 3, f->dest: 0, input port: 2, output_port = 4

Time: 996, routerid: 2,f->id: [170],VCUpdate, f->vc: 0, f->src: 3, f->dest: 0, input port: 0

Time: 996, routerid: 2,f->id: [165],SwitchUpdate, f->vc: 0, f->src: 1, f->dest: 2, input port: 3, output_port = 4

Time: 996, routerid: 3,f->id: [168],VCUpdate, f->vc: 3, f->src: 0, f->dest: 3, input port: 3

Time: 996, routerid: 0,f->id: [166],SendFlits, f->src: 3, f->dest: 0, output port = 4

Time: 996, routerid: 2,f->id: [165],SendFlits, f->src: 1, f->dest: 2, output port = 4

Time: 997, routerid: 0,f->id: [172],ReceiveFlit, f->vc: 3, f->src: 0, f->dest: 3, input port: 4

Time: 997, routerid: 0,f->id: [172],InputQueuing, f->vc: 3, f->src: 0, f->dest: 3, input port: 4

Time: 997, routerid: 0,f->id: [172],RouteUpdate, f->vc: 3, f->src: 0, f->dest: 3, input port: 4

Time: 997, routerid: 0,f->id: [171],VCUpdate, f->vc: 3, f->src: 1, f->dest: 2, input port: 0

Time: 997, routerid: 0,f->id: [167],SwitchUpdate, f->vc: 0, f->src: 3, f->dest: 0, input port: 2, output_port = 4

Time: 997, routerid: 3,f->id: [169],SwitchUpdate, f->vc: 1, f->src: 2, f->dest: 1, input port: 1, output_port = 3

Time: 997, routerid: 0,f->id: [167],SendFlits, f->src: 3, f->dest: 0, output port = 4

Time: 997, routerid: 3,f->id: [169],SendFlits, f->src: 2, f->dest: 1, output port = 3

Time: 998, routerid: 0,f->id: [172],VCUpdate, f->vc: 3, f->src: 0, f->dest: 3, input port: 4

Time: 998, routerid: 2,f->id: [170],SwitchUpdate, f->vc: 1, f->src: 3, f->dest: 0, input port: 0, output_port = 3

Time: 998, routerid: 3,f->id: [168],SwitchUpdate, f->vc: 0, f->src: 0, f->dest: 3, input port: 3, output_port = 4

Time: 998, routerid: 2,f->id: [170],SendFlits, f->src: 3, f->dest: 0, output port = 3

Time: 998, routerid: 3,f->id: [168],SendFlits, f->src: 0, f->dest: 3, output port = 4

Time: 999, routerid: 0,f->id: [171],SwitchUpdate, f->vc: 3, f->src: 1, f->dest: 2, input port: 0, output_port = 2

Time: 999, routerid: 0,f->id: [171],SendFlits, f->src: 1, f->dest: 2, output port = 2
1
===== Time: 1000 =====
Class 0:
Minimum packet latency = 20
Average packet latency = 20.0442
Maximum packet latency = 22
Minimum network latency = 21
Average network latency = 21.0442
Maximum network latency = 23
Slowest packet = 100
Minimum flit latency = 21
Average flit latency = 21.0435
Maximum flit latency = 23
Slowest flit = 100
Minimum fragmentation = 0
Average fragmentation = 0
Maximum fragmentation = 0
Minimum injected packet rate = 0.0357143 (at node 2)
Average injected packet rate = 0.0421429
Maximum injected packet rate = 0.0514286 (at node 3)
Minimum accepted packet rate = 0.0342857 (at node 1)
Average accepted packet rate = 0.0410714
Maximum accepted packet rate = 0.0514286 (at node 0)
Minimum injected flit rate = 0.0357143 (at node 2)
Average injected flit rate = 0.0421429
Maximum injected flit rate = 0.0514286 (at node 3)
Minimum accepted flit rate = 0.0342857 (at node 1)
Average accepted flit rate = 0.0410714
Maximum accepted flit rate = 0.0514286 (at node 0)
Total number of injected packets = 118
Total number of injected flits = 118
Average injected packet length = 1
Total number of accepted packets = 115
Total number of accepted flits = 115
Average accepted packet length = 1
Total in-flight flits = 5 (5 measured)
class 0 latency change    = 0.000337883
class 0 throughput change = 0.0144928
Draining remaining packets ...

Time: 1000, routerid: 0,f->id: [172],SwitchUpdate, f->vc: 2, f->src: 0, f->dest: 3, input port: 4, output_port = 0

Time: 1000, routerid: 0,f->id: [172],SendFlits, f->src: 0, f->dest: 3, output port = 0

Time: 1001, routerid: 1,f->id: [169],ReceiveFlit, f->vc: 1, f->src: 2, f->dest: 1, input port: 2

Time: 1001, routerid: 1,f->id: [169],InputQueuing, f->vc: 1, f->src: 2, f->dest: 1, input port: 2

Time: 1001, routerid: 1,f->id: [169],RouteUpdate, f->vc: 1, f->src: 2, f->dest: 1, input port: 2

Time: 1002, routerid: 0,f->id: [170],ReceiveFlit, f->vc: 1, f->src: 3, f->dest: 0, input port: 2

Time: 1002, routerid: 0,f->id: [170],InputQueuing, f->vc: 1, f->src: 3, f->dest: 0, input port: 2

Time: 1002, routerid: 0,f->id: [170],RouteUpdate, f->vc: 1, f->src: 3, f->dest: 0, input port: 2

Time: 1002, routerid: 1,f->id: [169],VCUpdate, f->vc: 1, f->src: 2, f->dest: 1, input port: 2

Time: 1003, routerid: 2,f->id: [171],ReceiveFlit, f->vc: 3, f->src: 1, f->dest: 2, input port: 3

Time: 1003, routerid: 0,f->id: [170],VCUpdate, f->vc: 1, f->src: 3, f->dest: 0, input port: 2

Time: 1003, routerid: 2,f->id: [171],InputQueuing, f->vc: 3, f->src: 1, f->dest: 2, input port: 3

Time: 1003, routerid: 2,f->id: [171],RouteUpdate, f->vc: 3, f->src: 1, f->dest: 2, input port: 3

Time: 1004, routerid: 1,f->id: [172],ReceiveFlit, f->vc: 2, f->src: 0, f->dest: 3, input port: 1

Time: 1004, routerid: 1,f->id: [172],InputQueuing, f->vc: 2, f->src: 0, f->dest: 3, input port: 1

Time: 1004, routerid: 1,f->id: [172],RouteUpdate, f->vc: 2, f->src: 0, f->dest: 3, input port: 1

Time: 1004, routerid: 1,f->id: [169],SwitchUpdate, f->vc: 1, f->src: 2, f->dest: 1, input port: 2, output_port = 4

Time: 1004, routerid: 2,f->id: [171],VCUpdate, f->vc: 3, f->src: 1, f->dest: 2, input port: 3

Time: 1004, routerid: 1,f->id: [169],SendFlits, f->src: 2, f->dest: 1, output port = 4

Time: 1005, routerid: 0,f->id: [170],SwitchUpdate, f->vc: 0, f->src: 3, f->dest: 0, input port: 2, output_port = 4

Time: 1005, routerid: 1,f->id: [172],VCUpdate, f->vc: 2, f->src: 0, f->dest: 3, input port: 1

Time: 1005, routerid: 0,f->id: [170],SendFlits, f->src: 3, f->dest: 0, output port = 4

Time: 1006, routerid: 2,f->id: [171],SwitchUpdate, f->vc: 2, f->src: 1, f->dest: 2, input port: 3, output_port = 4

Time: 1006, routerid: 2,f->id: [171],SendFlits, f->src: 1, f->dest: 2, output port = 4

Time: 1007, routerid: 1,f->id: [172],SwitchUpdate, f->vc: 0, f->src: 0, f->dest: 3, input port: 1, output_port = 2

Time: 1007, routerid: 1,f->id: [172],SendFlits, f->src: 0, f->dest: 3, output port = 2

Time: 1011, routerid: 3,f->id: [172],ReceiveFlit, f->vc: 0, f->src: 0, f->dest: 3, input port: 3

Time: 1011, routerid: 3,f->id: [172],InputQueuing, f->vc: 0, f->src: 0, f->dest: 3, input port: 3

Time: 1011, routerid: 3,f->id: [172],RouteUpdate, f->vc: 0, f->src: 0, f->dest: 3, input port: 3

Time: 1012, routerid: 3,f->id: [172],VCUpdate, f->vc: 0, f->src: 0, f->dest: 3, input port: 3

Time: 1014, routerid: 3,f->id: [172],SwitchUpdate, f->vc: 2, f->src: 0, f->dest: 3, input port: 3, output_port = 4

Time: 1014, routerid: 3,f->id: [172],SendFlits, f->src: 0, f->dest: 3, output port = 4
Time taken is 1020 cycles
Total run time 0.020834
