make: Nothing to be done for 'all'.
Master: Running timer....
Master: Running SRC....
BEGIN Configuration File: ./examples/bitrev
// Topology

topology = mesh;
k = 4;
n = 2;

// Routing
routing_function = dor;

// Flow control
num_vcs     = 4;
vc_buf_size = 4;
wait_for_tail_credit = 0;

// Router architecture
vc_allocator = islip;
sw_allocator = islip;
alloc_iters  = 1;

credit_delay   = 1;
routing_delay  = 1;
vc_alloc_delay = 1;
sw_alloc_delay = 1;

input_speedup     = 1;
output_speedup    = 1;
internal_speedup  = 1.0;

vc_busy_when_full = 0;

// Traffic
traffic = neighbor;
packet_size = 1;

// Simulation
sim_type = throughput;

injection_rate = 0.05;

END Configuration File: ./examples/bitrev
===== Time: 10000 =====
Class 0:
Minimum packet latency = 21
Average packet latency = 38.4016
Maximum packet latency = 127
Minimum network latency = 22
Average network latency = 39.4016
Maximum network latency = 128
Slowest packet = 4326
Minimum flit latency = 22
Average flit latency = 39.4016
Maximum flit latency = 128
Slowest flit = 4326
Minimum fragmentation = 0
Average fragmentation = 0
Maximum fragmentation = 0
Minimum injected packet rate = 0.0458 (at node 0)
Average injected packet rate = 0.0494687
Maximum injected packet rate = 0.0515 (at node 12)
Minimum accepted packet rate = 0.0457 (at node 5)
Average accepted packet rate = 0.0493
Maximum accepted packet rate = 0.0513 (at node 1)
Minimum injected flit rate = 0.0458 (at node 0)
Average injected flit rate = 0.0494687
Maximum injected flit rate = 0.0515 (at node 12)
Minimum accepted flit rate = 0.0457 (at node 5)
Average accepted flit rate = 0.0493
Maximum accepted flit rate = 0.0513 (at node 1)
Total number of injected packets = 7915
Total number of injected flits = 7915
Average injected packet length = 1
Total number of accepted packets = 7888
Total number of accepted flits = 7888
Average accepted packet length = 1
Total in-flight flits = 27 (0 measured)
===== Time: 20000 =====
Class 0:
Minimum packet latency = 21
Average packet latency = 38.54
Maximum packet latency = 130
Minimum network latency = 22
Average network latency = 39.54
Maximum network latency = 131
Slowest packet = 12487
Minimum flit latency = 22
Average flit latency = 39.54
Maximum flit latency = 131
Slowest flit = 12487
Minimum fragmentation = 0
Average fragmentation = 0
Maximum fragmentation = 0
Minimum injected packet rate = 0.0483 (at node 8)
Average injected packet rate = 0.0500375
Maximum injected packet rate = 0.0526 (at node 12)
Minimum accepted packet rate = 0.0482 (at node 13)
Average accepted packet rate = 0.0499438
Maximum accepted packet rate = 0.0524 (at node 1)
Minimum injected flit rate = 0.0483 (at node 8)
Average injected flit rate = 0.0500375
Maximum injected flit rate = 0.0526 (at node 12)
Minimum accepted flit rate = 0.0482 (at node 13)
Average accepted flit rate = 0.0499438
Maximum accepted flit rate = 0.0524 (at node 1)
Total number of injected packets = 16012
Total number of injected flits = 16012
Average injected packet length = 1
Total number of accepted packets = 15982
Total number of accepted flits = 15982
Average accepted packet length = 1
Total in-flight flits = 30 (0 measured)
===== Time: 30000 =====
Class 0:
Minimum packet latency = 21
Average packet latency = 38.4403
Maximum packet latency = 98
Minimum network latency = 22
Average network latency = 39.4403
Maximum network latency = 99
Slowest packet = 17985
Minimum flit latency = 22
Average flit latency = 39.4403
Maximum flit latency = 99
Slowest flit = 17985
Minimum fragmentation = 0
Average fragmentation = 0
Maximum fragmentation = 0
Minimum injected packet rate = 0.045 (at node 15)
Average injected packet rate = 0.0495875
Maximum injected packet rate = 0.0541 (at node 13)
Minimum accepted packet rate = 0.0448 (at node 0)
Average accepted packet rate = 0.0496375
Maximum accepted packet rate = 0.0545 (at node 2)
Minimum injected flit rate = 0.045 (at node 15)
Average injected flit rate = 0.0495875
Maximum injected flit rate = 0.0541 (at node 13)
Minimum accepted flit rate = 0.0448 (at node 0)
Average accepted flit rate = 0.0496375
Maximum accepted flit rate = 0.0545 (at node 2)
Total number of injected packets = 7934
Total number of injected flits = 7934
Average injected packet length = 1
Total number of accepted packets = 7942
Total number of accepted flits = 7942
Average accepted packet length = 1
Total in-flight flits = 22 (0 measured)
===== Time: 40000 =====
Class 0:
Minimum packet latency = 21
Average packet latency = 38.6572
Maximum packet latency = 134
Minimum network latency = 22
Average network latency = 39.6572
Maximum network latency = 135
Slowest packet = 25255
Minimum flit latency = 22
Average flit latency = 39.6667
Maximum flit latency = 135
Slowest flit = 25255
Minimum fragmentation = 0
Average fragmentation = 0
Maximum fragmentation = 0
Minimum injected packet rate = 0.0473 (at node 6)
Average injected packet rate = 0.0501938
Maximum injected packet rate = 0.0543 (at node 14)
Minimum accepted packet rate = 0.0473 (at node 11)
Average accepted packet rate = 0.0501313
Maximum accepted packet rate = 0.0539 (at node 3)
Minimum injected flit rate = 0.0473 (at node 6)
Average injected flit rate = 0.0501938
Maximum injected flit rate = 0.0543 (at node 14)
Minimum accepted flit rate = 0.0473 (at node 11)
Average accepted flit rate = 0.0501313
Maximum accepted flit rate = 0.0539 (at node 3)
Total number of injected packets = 8031
Total number of injected flits = 8031
Average injected packet length = 1
Total number of accepted packets = 8021
Total number of accepted flits = 8021
Average accepted packet length = 1
Total in-flight flits = 32 (32 measured)
===== Time: 50000 =====
Class 0:
Minimum packet latency = 21
Average packet latency = 38.5462
Maximum packet latency = 134
Minimum network latency = 22
Average network latency = 39.5462
Maximum network latency = 135
Slowest packet = 25255
Minimum flit latency = 22
Average flit latency = 39.5511
Maximum flit latency = 135
Slowest flit = 25255
Minimum fragmentation = 0
Average fragmentation = 0
Maximum fragmentation = 0
Minimum injected packet rate = 0.04815 (at node 10)
Average injected packet rate = 0.0503
Maximum injected packet rate = 0.05345 (at node 14)
Minimum accepted packet rate = 0.04825 (at node 15)
Average accepted packet rate = 0.0502812
Maximum accepted packet rate = 0.05335 (at node 3)
Minimum injected flit rate = 0.04815 (at node 10)
Average injected flit rate = 0.0503
Maximum injected flit rate = 0.05345 (at node 14)
Minimum accepted flit rate = 0.04825 (at node 15)
Average accepted flit rate = 0.0502812
Maximum accepted flit rate = 0.05335 (at node 3)
Total number of injected packets = 16096
Total number of injected flits = 16096
Average injected packet length = 1
Total number of accepted packets = 16090
Total number of accepted flits = 16090
Average accepted packet length = 1
Total in-flight flits = 28 (28 measured)
===== Time: 60000 =====
Class 0:
Minimum packet latency = 21
Average packet latency = 38.4284
Maximum packet latency = 134
Minimum network latency = 22
Average network latency = 39.4284
Maximum network latency = 135
Slowest packet = 25255
Minimum flit latency = 22
Average flit latency = 39.4318
Maximum flit latency = 135
Slowest flit = 25255
Minimum fragmentation = 0
Average fragmentation = 0
Maximum fragmentation = 0
Minimum injected packet rate = 0.0482 (at node 10)
Average injected packet rate = 0.0501896
Maximum injected packet rate = 0.0528667 (at node 14)
Minimum accepted packet rate = 0.0482333 (at node 15)
Average accepted packet rate = 0.0501542
Maximum accepted packet rate = 0.0528333 (at node 3)
Minimum injected flit rate = 0.0482 (at node 10)
Average injected flit rate = 0.0501896
Maximum injected flit rate = 0.0528667 (at node 14)
Minimum accepted flit rate = 0.0482333 (at node 15)
Average accepted flit rate = 0.0501542
Maximum accepted flit rate = 0.0528333 (at node 3)
Total number of injected packets = 24091
Total number of injected flits = 24091
Average injected packet length = 1
Total number of accepted packets = 24074
Total number of accepted flits = 24074
Average accepted packet length = 1
Total in-flight flits = 39 (39 measured)
Draining remaining packets ...
Class 0:
Remaining flits: 47974 47982 47985 47994 47996 47997 48001 48003 48005 48010 [...] (33 flits)
Measured flits: 47974 47982 47985 47994 47996 47997 48001 48003 48005 48010 [...] (33 flits)
Class 0:
Remaining flits: 47982 47985 47994 47996 48003 48012 48013 48014 48016 48017 [...] (21 flits)
Measured flits: 47982 47985 47994 47996 48003 48012 48013 48014 48016 48017 [...] (21 flits)
Class 0:
Remaining flits: 47994 47996 48003 48013 48016 48017 48025 48028 48029 48030 [...] (12 flits)
Measured flits: 47994 47996 48003 48013 48016 48017 48025 48028 48029 48030 [...] (12 flits)
Class 0:
Remaining flits: 47994 48003 48013 48017 48025 48028 48029 48030 48033 (9 flits)
Measured flits: 47994 48003 48013 48017 48025 48028 48029 48030 48033 (9 flits)
Class 0:
Remaining flits: 47994 48017 48028 48030 48033 (5 flits)
Measured flits: 47994 48017 48028 48030 48033 (5 flits)
Class 0:
Remaining flits: 47994 48028 48030 48033 (4 flits)
Measured flits: 47994 48028 48030 48033 (4 flits)
Class 0:
Remaining flits: 47994 48030 (2 flits)
Measured flits: 47994 48030 (2 flits)
Class 0:
Remaining flits: 47994 48030 (2 flits)
Measured flits: 47994 48030 (2 flits)
Class 0:
Remaining flits: 47994 48030 (2 flits)
Measured flits: 47994 48030 (2 flits)
Class 0:
Remaining flits: 47994 48030 (2 flits)
Measured flits: 47994 48030 (2 flits)
Class 0:
Remaining flits: 47994 48030 (2 flits)
Measured flits: 47994 48030 (2 flits)
Class 0:
Remaining flits: 47994 48030 (2 flits)
Measured flits: 47994 48030 (2 flits)
Class 0:
Remaining flits: 47994 48030 (2 flits)
Measured flits: 47994 48030 (2 flits)
Class 0:
Remaining flits: 47994 48030 (2 flits)
Measured flits: 47994 48030 (2 flits)
Class 0:
Remaining flits: 47994 48030 (2 flits)
Measured flits: 47994 48030 (2 flits)
Class 0:
Remaining flits: 47994 48030 (2 flits)
Measured flits: 47994 48030 (2 flits)
Class 0:
Remaining flits: 47994 48030 (2 flits)
Measured flits: 47994 48030 (2 flits)
Class 0:
Remaining flits: 47994 48030 (2 flits)
Measured flits: 47994 48030 (2 flits)
Class 0:
Remaining flits: 47994 48030 (2 flits)
Measured flits: 47994 48030 (2 flits)
Class 0:
Remaining flits: 47994 48030 (2 flits)
Measured flits: 47994 48030 (2 flits)
Class 0:
Remaining flits: 47994 48030 (2 flits)
Measured flits: 47994 48030 (2 flits)
Class 0:
Remaining flits: 47994 48030 (2 flits)
Measured flits: 47994 48030 (2 flits)
Class 0:
Remaining flits: 47994 48030 (2 flits)
Measured flits: 47994 48030 (2 flits)
Class 0:
Remaining flits: 47994 48030 (2 flits)
Measured flits: 47994 48030 (2 flits)
Class 0:
Remaining flits: 47994 48030 (2 flits)
Measured flits: 47994 48030 (2 flits)
Class 0:
Remaining flits: 47994 48030 (2 flits)
Measured flits: 47994 48030 (2 flits)
Class 0:
Remaining flits: 47994 48030 (2 flits)
Measured flits: 47994 48030 (2 flits)
Class 0:
Remaining flits: 47994 48030 (2 flits)
Measured flits: 47994 48030 (2 flits)
Class 0:
Remaining flits: 47994 48030 (2 flits)
Measured flits: 47994 48030 (2 flits)
Class 0:
Remaining flits: 47994 48030 (2 flits)
Measured flits: 47994 48030 (2 flits)
Class 0:
Remaining flits: 47994 48030 (2 flits)
Measured flits: 47994 48030 (2 flits)
Class 0:
Remaining flits: 47994 48030 (2 flits)
Measured flits: 47994 48030 (2 flits)
Class 0:
Remaining flits: 47994 48030 (2 flits)
Measured flits: 47994 48030 (2 flits)
Class 0:
Remaining flits: 47994 48030 (2 flits)
Measured flits: 47994 48030 (2 flits)
Class 0:
Remaining flits: 47994 48030 (2 flits)
Measured flits: 47994 48030 (2 flits)
Class 0:
Remaining flits: 47994 48030 (2 flits)
Measured flits: 47994 48030 (2 flits)
Class 0:
Remaining flits: 47994 48030 (2 flits)
Measured flits: 47994 48030 (2 flits)
Class 0:
Remaining flits: 47994 48030 (2 flits)
Measured flits: 47994 48030 (2 flits)
Class 0:
Remaining flits: 47994 48030 (2 flits)
Measured flits: 47994 48030 (2 flits)
Class 0:
Remaining flits: 47994 48030 (2 flits)
Measured flits: 47994 48030 (2 flits)
Class 0:
Remaining flits: 47994 48030 (2 flits)
Measured flits: 47994 48030 (2 flits)
Class 0:
Remaining flits: 47994 48030 (2 flits)
Measured flits: 47994 48030 (2 flits)
Class 0:
Remaining flits: 47994 48030 (2 flits)
Measured flits: 47994 48030 (2 flits)
Class 0:
Remaining flits: 47994 48030 (2 flits)
Measured flits: 47994 48030 (2 flits)
Class 0:
Remaining flits: 47994 48030 (2 flits)
Measured flits: 47994 48030 (2 flits)
Class 0:
Remaining flits: 47994 48030 (2 flits)
Measured flits: 47994 48030 (2 flits)
Class 0:
Remaining flits: 47994 48030 (2 flits)
Measured flits: 47994 48030 (2 flits)
Class 0:
Remaining flits: 47994 48030 (2 flits)
Measured flits: 47994 48030 (2 flits)
Class 0:
Remaining flits: 47994 48030 (2 flits)
Measured flits: 47994 48030 (2 flits)
Class 0:
Remaining flits: 47994 48030 (2 flits)
Measured flits: 47994 48030 (2 flits)
Class 0:
Remaining flits: 47994 48030 (2 flits)
Measured flits: 47994 48030 (2 flits)
Class 0:
Remaining flits: 47994 48030 (2 flits)
Measured flits: 47994 48030 (2 flits)
Class 0:
Remaining flits: 47994 48030 (2 flits)
Measured flits: 47994 48030 (2 flits)
Class 0:
Remaining flits: 47994 48030 (2 flits)
Measured flits: 47994 48030 (2 flits)
Class 0:
Remaining flits: 47994 48030 (2 flits)
Measured flits: 47994 48030 (2 flits)
Class 0:
Remaining flits: 47994 48030 (2 flits)
Measured flits: 47994 48030 (2 flits)
Class 0:
Remaining flits: 47994 48030 (2 flits)
Measured flits: 47994 48030 (2 flits)
Class 0:
Remaining flits: 47994 48030 (2 flits)
Measured flits: 47994 48030 (2 flits)
Class 0:
Remaining flits: 47994 48030 (2 flits)
Measured flits: 47994 48030 (2 flits)
Class 0:
Remaining flits: 47994 48030 (2 flits)
Measured flits: 47994 48030 (2 flits)
Class 0:
Remaining flits: 47994 48030 (2 flits)
Measured flits: 47994 48030 (2 flits)
Class 0:
Remaining flits: 47994 48030 (2 flits)
Measured flits: 47994 48030 (2 flits)
Class 0:
Remaining flits: 47994 48030 (2 flits)
Measured flits: 47994 48030 (2 flits)
Class 0:
Remaining flits: 47994 48030 (2 flits)
Measured flits: 47994 48030 (2 flits)
Class 0:
Remaining flits: 47994 48030 (2 flits)
Measured flits: 47994 48030 (2 flits)
Class 0:
Remaining flits: 47994 48030 (2 flits)
Measured flits: 47994 48030 (2 flits)
Class 0:
Remaining flits: 47994 48030 (2 flits)
Measured flits: 47994 48030 (2 flits)
Class 0:
Remaining flits: 47994 48030 (2 flits)
Measured flits: 47994 48030 (2 flits)
Class 0:
Remaining flits: 47994 48030 (2 flits)
Measured flits: 47994 48030 (2 flits)
Class 0:
Remaining flits: 47994 48030 (2 flits)
Measured flits: 47994 48030 (2 flits)
Class 0:
Remaining flits: 47994 48030 (2 flits)
Measured flits: 47994 48030 (2 flits)
Class 0:
Remaining flits: 47994 48030 (2 flits)
Measured flits: 47994 48030 (2 flits)
Class 0:
Remaining flits: 47994 48030 (2 flits)
Measured flits: 47994 48030 (2 flits)
Class 0:
Remaining flits: 47994 48030 (2 flits)
Measured flits: 47994 48030 (2 flits)
Class 0:
Remaining flits: 47994 48030 (2 flits)
Measured flits: 47994 48030 (2 flits)
Class 0:
Remaining flits: 47994 48030 (2 flits)
Measured flits: 47994 48030 (2 flits)
Class 0:
Remaining flits: 47994 48030 (2 flits)
Measured flits: 47994 48030 (2 flits)
Class 0:
Remaining flits: 47994 48030 (2 flits)
Measured flits: 47994 48030 (2 flits)
Class 0:
Remaining flits: 47994 48030 (2 flits)
Measured flits: 47994 48030 (2 flits)
Class 0:
Remaining flits: 47994 48030 (2 flits)
Measured flits: 47994 48030 (2 flits)
Class 0:
Remaining flits: 47994 48030 (2 flits)
Measured flits: 47994 48030 (2 flits)
Class 0:
Remaining flits: 47994 48030 (2 flits)
Measured flits: 47994 48030 (2 flits)
Class 0:
Remaining flits: 47994 48030 (2 flits)
Measured flits: 47994 48030 (2 flits)
Class 0:
Remaining flits: 47994 48030 (2 flits)
Measured flits: 47994 48030 (2 flits)
Class 0:
Remaining flits: 47994 48030 (2 flits)
Measured flits: 47994 48030 (2 flits)
Class 0:
Remaining flits: 47994 48030 (2 flits)
Measured flits: 47994 48030 (2 flits)
Class 0:
Remaining flits: 47994 48030 (2 flits)
Measured flits: 47994 48030 (2 flits)
Class 0:
Remaining flits: 47994 48030 (2 flits)
Measured flits: 47994 48030 (2 flits)
Class 0:
Remaining flits: 47994 48030 (2 flits)
Measured flits: 47994 48030 (2 flits)
Class 0:
Remaining flits: 47994 48030 (2 flits)
Measured flits: 47994 48030 (2 flits)
Class 0:
Remaining flits: 47994 48030 (2 flits)
Measured flits: 47994 48030 (2 flits)
Class 0:
Remaining flits: 47994 48030 (2 flits)
Measured flits: 47994 48030 (2 flits)
Class 0:
Remaining flits: 47994 48030 (2 flits)
Measured flits: 47994 48030 (2 flits)
Class 0:
Remaining flits: 47994 48030 (2 flits)
Measured flits: 47994 48030 (2 flits)
Class 0:
Remaining flits: 47994 48030 (2 flits)
Measured flits: 47994 48030 (2 flits)
Class 0:
Remaining flits: 47994 48030 (2 flits)
Measured flits: 47994 48030 (2 flits)
Class 0:
Remaining flits: 47994 48030 (2 flits)
Measured flits: 47994 48030 (2 flits)
Class 0:
Remaining flits: 47994 48030 (2 flits)
Measured flits: 47994 48030 (2 flits)
Class 0:
Remaining flits: 47994 48030 (2 flits)
Measured flits: 47994 48030 (2 flits)
Class 0:
Remaining flits: 47994 48030 (2 flits)
Measured flits: 47994 48030 (2 flits)
Class 0:
Remaining flits: 47994 48030 (2 flits)
Measured flits: 47994 48030 (2 flits)
Time taken is 61000 cycles
====== Traffic class 0 ======

Total number of flits generated = 48037, changed lanes = 47345
Overall minimum packet latency = 21 (1 samples)
Overall average packet latency = 38.4434 (1 samples)
Overall maximum packet latency = 134 (1 samples)
Overall minimum network latency = 22 (1 samples)
Overall average network latency = 39.4434 (1 samples)
Overall maximum network latency = 135 (1 samples)
Overall minimum flit latency = 22 (1 samples)
Overall average flit latency = 39.4467 (1 samples)
Overall maximum flit latency = 135 (1 samples)
Overall minimum fragmentation = 0 (1 samples)
Overall average fragmentation = 0 (1 samples)
Overall maximum fragmentation = 0 (1 samples)
Overall minimum injected packet rate = 0.0482 (1 samples)
Overall average injected packet rate = 0.0501896 (1 samples)
Overall maximum injected packet rate = 0.0528667 (1 samples)
Overall minimum accepted packet rate = 0.0482333 (1 samples)
Overall average accepted packet rate = 0.0501542 (1 samples)
Overall maximum accepted packet rate = 0.0528333 (1 samples)
Overall minimum injected flit rate = 0.0482 (1 samples)
Overall average injected flit rate = 0.0501896 (1 samples)
Overall maximum injected flit rate = 0.0528667 (1 samples)
Overall minimum accepted flit rate = 0.0482333 (1 samples)
Overall average accepted flit rate = 0.0501542 (1 samples)
Overall maximum accepted flit rate = 0.0528333 (1 samples)
Overall average injected packet size = 1 (1 samples)
Overall average accepted packet size = 1 (1 samples)
Overall average hops = 4.02063 (1 samples)
Overall throughput of the network (flits/cycle) = 1.60117
Overall throughput of the network (packets/cycle) = 1.60117
Total run time 84.9462
