make: Nothing to be done for 'all'.
Master: Running timer....
Master: Running SRC....
BEGIN Configuration File: ./examples/mesh88_lat_blackscholes
// $Id$

topology = mesh;
k = 8;
n = 2;

// Routing
routing_function = dor;

// Flow control
num_vcs     = 1;
vc_buf_size = 4;
wait_for_tail_credit = 1;

// Router architecture
vc_allocator = islip;
sw_allocator = islip;
alloc_iters  = 1;

credit_delay   = 1;
routing_delay  = 1;
vc_alloc_delay = 1;
sw_alloc_delay = 1;

input_speedup     = 1;
output_speedup    = 1;
internal_speedup  = 1.0;

vc_busy_when_full = 0;

// Traffic
workload=netrace({/home/sarab/Downloads/BookSim_Benchmark_files/fluidanimate_64c_simsmall.tra.bz2,100000000,1,2,1,1,0);

// Simulation
sim_type = workload;

END Configuration File: ./examples/mesh88_lat_blackscholes
Warming up...
===== Time: 10000 =====
Class 0:
Packets read from trace = 160 of 20989170 (0%)
Future packets = 1
Waiting packets = 0
Stalled packets = 135
Packets pending injection = 10
Packets in flight = 11
Minimum packet latency = 94
Average packet latency = 98.3333
Maximum packet latency = 107
Minimum network latency = 94
Average network latency = 98.3333
Maximum network latency = 107
Slowest packet = 0
Minimum flit latency = 46
Average flit latency = 100.6
Maximum flit latency = 146
Slowest flit = 9
Minimum fragmentation = 0
Average fragmentation = 0
Maximum fragmentation = 0
Minimum injected packet rate = 0 (at node 0)
Average injected packet rate = 2.03125e-05
Maximum injected packet rate = 0.0003 (at node 2)
Minimum accepted packet rate = 0 (at node 0)
Average accepted packet rate = 4.6875e-06
Maximum accepted packet rate = 0.0002 (at node 38)
Minimum injected flit rate = 0 (at node 0)
Average injected flit rate = 7.8125e-05
Maximum injected flit rate = 0.001 (at node 2)
Minimum accepted flit rate = 0 (at node 0)
Average accepted flit rate = 2.34375e-05
Maximum accepted flit rate = 0.0005 (at node 58)
Total number of injected packets = 13
Total number of injected flits = 50
Average injected packet length = 3.84615
Total number of accepted packets = 3
Total number of accepted flits = 15
Average accepted packet length = 5
Total in-flight flits = 43 (0 measured)
===== Time: 20000 =====
Class 0:
Packets read from trace = 313 of 20989170 (0%)
Future packets = 1
Waiting packets = 0
Stalled packets = 272
Packets pending injection = 21
Packets in flight = 15
Minimum packet latency = 94
Average packet latency = 3522.5
Maximum packet latency = 13795
Minimum network latency = 94
Average network latency = 3522.5
Maximum network latency = 13795
Slowest packet = 3
Minimum flit latency = 46
Average flit latency = 1354.35
Maximum flit latency = 13787
Slowest flit = 7
Minimum fragmentation = 0
Average fragmentation = 3420.75
Maximum fragmentation = 13683
Minimum injected packet rate = 0 (at node 0)
Average injected packet rate = 1.40625e-05
Maximum injected packet rate = 0.00015 (at node 2)
Minimum accepted packet rate = 0 (at node 0)
Average accepted packet rate = 3.125e-06
Maximum accepted packet rate = 0.0001 (at node 38)
Minimum injected flit rate = 0 (at node 0)
Average injected flit rate = 5.78125e-05
Maximum injected flit rate = 0.0007 (at node 54)
Minimum accepted flit rate = 0 (at node 0)
Average accepted flit rate = 1.5625e-05
Maximum accepted flit rate = 0.00045 (at node 2)
Total number of injected packets = 18
Total number of injected flits = 74
Average injected packet length = 4.11111
Total number of accepted packets = 4
Total number of accepted flits = 20
Average accepted packet length = 5
Total in-flight flits = 63 (0 measured)
===== Time: 30000 =====
Class 0:
Packets read from trace = 463 of 20989170 (0%)
Future packets = 1
Waiting packets = 0
Stalled packets = 406
Packets pending injection = 35
Packets in flight = 17
Minimum packet latency = 94
Average packet latency = 3522.5
Maximum packet latency = 13795
Minimum network latency = 94
Average network latency = 3522.5
Maximum network latency = 13795
Slowest packet = 3
Minimum flit latency = 46
Average flit latency = 1354.35
Maximum flit latency = 13787
Slowest flit = 7
Minimum fragmentation = 0
Average fragmentation = 3420.75
Maximum fragmentation = 13683
Minimum injected packet rate = 0 (at node 0)
Average injected packet rate = 1.04167e-05
Maximum injected packet rate = 0.0001 (at node 2)
Minimum accepted packet rate = 0 (at node 0)
Average accepted packet rate = 2.08333e-06
Maximum accepted packet rate = 6.66667e-05 (at node 38)
Minimum injected flit rate = 0 (at node 0)
Average injected flit rate = 4.32292e-05
Maximum injected flit rate = 0.000466667 (at node 54)
Minimum accepted flit rate = 0 (at node 0)
Average accepted flit rate = 1.04167e-05
Maximum accepted flit rate = 0.0003 (at node 2)
Total number of injected packets = 20
Total number of injected flits = 83
Average injected packet length = 4.15
Total number of accepted packets = 4
Total number of accepted flits = 20
Average accepted packet length = 5
Total in-flight flits = 73 (0 measured)
Warmup ends after 30000 cycles.
Beginning measurements...
===== Time: 40000 =====
Class 0:
Packets read from trace = 611 of 20989170 (0%)
Future packets = 1
Waiting packets = 0
Stalled packets = 540
Packets pending injection = 40
Packets in flight = 25
Minimum packet latency = 6471
Average packet latency = 6471
Maximum packet latency = 6471
Minimum network latency = 6471
Average network latency = 6471
Maximum network latency = 6471
Slowest packet = 21
Minimum flit latency = 94
Average flit latency = 3020.88
Maximum flit latency = 6461
Slowest flit = 97
Minimum fragmentation = 6373
Average fragmentation = 6373
Maximum fragmentation = 6373
Minimum injected packet rate = 0 (at node 0)
Average injected packet rate = 1.25e-05
Maximum injected packet rate = 0.0003 (at node 3)
Minimum accepted packet rate = 0 (at node 0)
Average accepted packet rate = 1.5625e-06
Maximum accepted packet rate = 0.0001 (at node 47)
Minimum injected flit rate = 0 (at node 0)
Average injected flit rate = 5.9375e-05
Maximum injected flit rate = 0.0014 (at node 3)
Minimum accepted flit rate = 0 (at node 0)
Average accepted flit rate = 1.25e-05
Maximum accepted flit rate = 0.0005 (at node 47)
Total number of injected packets = 8
Total number of injected flits = 38
Average injected packet length = 4.75
Total number of accepted packets = 1
Total number of accepted flits = 8
Average accepted packet length = 8
Total in-flight flits = 110 (37 measured)
===== Time: 50000 =====
Class 0:
Packets read from trace = 754 of 20989170 (0%)
Future packets = 1
Waiting packets = 1
Stalled packets = 671
Packets pending injection = 47
Packets in flight = 28
Minimum packet latency = 1228
Average packet latency = 3849.5
Maximum packet latency = 6471
Minimum network latency = 1228
Average network latency = 3849.5
Maximum network latency = 6471
Slowest packet = 21
Minimum flit latency = 94
Average flit latency = 1983.62
Maximum flit latency = 6461
Slowest flit = 97
Minimum fragmentation = 1127
Average fragmentation = 3750
Maximum fragmentation = 6373
Minimum injected packet rate = 0 (at node 0)
Average injected packet rate = 9.375e-06
Maximum injected packet rate = 0.00015 (at node 3)
Minimum accepted packet rate = 0 (at node 0)
Average accepted packet rate = 1.5625e-06
Maximum accepted packet rate = 5e-05 (at node 47)
Minimum injected flit rate = 0 (at node 0)
Average injected flit rate = 4.53125e-05
Maximum injected flit rate = 0.00075 (at node 51)
Minimum accepted flit rate = 0 (at node 0)
Average accepted flit rate = 1.01562e-05
Maximum accepted flit rate = 0.00025 (at node 47)
Total number of injected packets = 12
Total number of injected flits = 58
Average injected packet length = 4.83333
Total number of accepted packets = 2
Total number of accepted flits = 13
Average accepted packet length = 6.5
Total in-flight flits = 125 (52 measured)
===== Time: 60000 =====
Class 0:
Packets read from trace = 891 of 20989170 (0%)
Future packets = 1
Waiting packets = 0
Stalled packets = 796
Packets pending injection = 53
Packets in flight = 31
Minimum packet latency = 1228
Average packet latency = 8900.83
Maximum packet latency = 22929
Minimum network latency = 1228
Average network latency = 8900.33
Maximum network latency = 22929
Slowest packet = 23
Minimum flit latency = 94
Average flit latency = 6604.81
Maximum flit latency = 22924
Slowest flit = 106
Minimum fragmentation = 7
Average fragmentation = 4457.83
Maximum fragmentation = 17155
Minimum injected packet rate = 0 (at node 0)
Average injected packet rate = 9.89583e-06
Maximum injected packet rate = 0.0001 (at node 3)
Minimum accepted packet rate = 0 (at node 0)
Average accepted packet rate = 3.125e-06
Maximum accepted packet rate = 0.0001 (at node 23)
Minimum injected flit rate = 0 (at node 0)
Average injected flit rate = 4.73958e-05
Maximum injected flit rate = 0.0005 (at node 51)
Minimum accepted flit rate = 0 (at node 0)
Average accepted flit rate = 1.92708e-05
Maximum accepted flit rate = 0.0005 (at node 23)
Total number of injected packets = 19
Total number of injected flits = 91
Average injected packet length = 4.78947
Total number of accepted packets = 6
Total number of accepted flits = 37
Average accepted packet length = 6.16667
Total in-flight flits = 136 (63 measured)
===== Time: 70000 =====
Class 0:
Packets read from trace = 1020 of 20989170 (0%)
Future packets = 1
Waiting packets = 0
Stalled packets = 920
Packets pending injection = 56
Packets in flight = 33
Minimum packet latency = 1228
Average packet latency = 8900.83
Maximum packet latency = 22929
Minimum network latency = 1228
Average network latency = 8900.33
Maximum network latency = 22929
Slowest packet = 23
Minimum flit latency = 94
Average flit latency = 6604.81
Maximum flit latency = 22924
Slowest flit = 106
Minimum fragmentation = 7
Average fragmentation = 4457.83
Maximum fragmentation = 17155
Minimum injected packet rate = 0 (at node 0)
Average injected packet rate = 8.20312e-06
Maximum injected packet rate = 7.5e-05 (at node 3)
Minimum accepted packet rate = 0 (at node 0)
Average accepted packet rate = 2.34375e-06
Maximum accepted packet rate = 7.5e-05 (at node 23)
Minimum injected flit rate = 0 (at node 0)
Average injected flit rate = 3.94531e-05
Maximum injected flit rate = 0.000375 (at node 51)
Minimum accepted flit rate = 0 (at node 0)
Average accepted flit rate = 1.44531e-05
Maximum accepted flit rate = 0.000375 (at node 23)
Total number of injected packets = 21
Total number of injected flits = 101
Average injected packet length = 4.80952
Total number of accepted packets = 6
Total number of accepted flits = 37
Average accepted packet length = 6.16667
Total in-flight flits = 146 (73 measured)
===== Time: 80000 =====
Class 0:
Packets read from trace = 1208 of 20989170 (0%)
Future packets = 1
Waiting packets = 0
Stalled packets = 1098
Packets pending injection = 63
Packets in flight = 36
Minimum packet latency = 1228
Average packet latency = 8900.83
Maximum packet latency = 22929
Minimum network latency = 1228
Average network latency = 8900.33
Maximum network latency = 22929
Slowest packet = 23
Minimum flit latency = 58
Average flit latency = 5966.39
Maximum flit latency = 22924
Slowest flit = 106
Minimum fragmentation = 7
Average fragmentation = 4457.83
Maximum fragmentation = 17155
Minimum injected packet rate = 0 (at node 0)
Average injected packet rate = 7.5e-06
Maximum injected packet rate = 6e-05 (at node 3)
Minimum accepted packet rate = 0 (at node 0)
Average accepted packet rate = 1.875e-06
Maximum accepted packet rate = 6e-05 (at node 23)
Minimum injected flit rate = 0 (at node 0)
Average injected flit rate = 3.5625e-05
Maximum injected flit rate = 0.0003 (at node 51)
Minimum accepted flit rate = 0 (at node 0)
Average accepted flit rate = 1.28125e-05
Maximum accepted flit rate = 0.0003 (at node 23)
Total number of injected packets = 24
Total number of injected flits = 114
Average injected packet length = 4.75
Total number of accepted packets = 6
Total number of accepted flits = 41
Average accepted packet length = 6.83333
Total in-flight flits = 157 (84 measured)
===== Time: 90000 =====
Class 0:
Packets read from trace = 1238 of 20989170 (0%)
Future packets = 1
Waiting packets = 0
Stalled packets = 1128
Packets pending injection = 63
Packets in flight = 36
Minimum packet latency = 1228
Average packet latency = 8900.83
Maximum packet latency = 22929
Minimum network latency = 1228
Average network latency = 8900.33
Maximum network latency = 22929
Slowest packet = 23
Minimum flit latency = 58
Average flit latency = 5966.39
Maximum flit latency = 22924
Slowest flit = 106
Minimum fragmentation = 7
Average fragmentation = 4457.83
Maximum fragmentation = 17155
Minimum injected packet rate = 0 (at node 0)
Average injected packet rate = 6.25e-06
Maximum injected packet rate = 5e-05 (at node 3)
Minimum accepted packet rate = 0 (at node 0)
Average accepted packet rate = 1.5625e-06
Maximum accepted packet rate = 5e-05 (at node 23)
Minimum injected flit rate = 0 (at node 0)
Average injected flit rate = 2.96875e-05
Maximum injected flit rate = 0.00025 (at node 51)
Minimum accepted flit rate = 0 (at node 0)
Average accepted flit rate = 1.06771e-05
Maximum accepted flit rate = 0.00025 (at node 23)
Total number of injected packets = 24
Total number of injected flits = 114
Average injected packet length = 4.75
Total number of accepted packets = 6
Total number of accepted flits = 41
Average accepted packet length = 6.83333
Total in-flight flits = 157 (84 measured)
===== Time: 100000 =====
Class 0:
Packets read from trace = 1252 of 20989170 (0%)
Future packets = 1
Waiting packets = 0
Stalled packets = 1142
Packets pending injection = 63
Packets in flight = 36
Minimum packet latency = 1228
Average packet latency = 8900.83
Maximum packet latency = 22929
Minimum network latency = 1228
Average network latency = 8900.33
Maximum network latency = 22929
Slowest packet = 23
Minimum flit latency = 58
Average flit latency = 5966.39
Maximum flit latency = 22924
Slowest flit = 106
Minimum fragmentation = 7
Average fragmentation = 4457.83
Maximum fragmentation = 17155
Minimum injected packet rate = 0 (at node 0)
Average injected packet rate = 5.35714e-06
Maximum injected packet rate = 4.28571e-05 (at node 3)
Minimum accepted packet rate = 0 (at node 0)
Average accepted packet rate = 1.33929e-06
Maximum accepted packet rate = 4.28571e-05 (at node 23)
Minimum injected flit rate = 0 (at node 0)
Average injected flit rate = 2.54464e-05
Maximum injected flit rate = 0.000214286 (at node 51)
Minimum accepted flit rate = 0 (at node 0)
Average accepted flit rate = 9.15179e-06
Maximum accepted flit rate = 0.000214286 (at node 23)
Total number of injected packets = 24
Total number of injected flits = 114
Average injected packet length = 4.75
Total number of accepted packets = 6
Total number of accepted flits = 41
Average accepted packet length = 6.83333
Total in-flight flits = 157 (84 measured)
===== Time: 110000 =====
Class 0:
Packets read from trace = 1280 of 20989170 (0%)
Future packets = 1
Waiting packets = 0
Stalled packets = 1167
Packets pending injection = 65
Packets in flight = 37
Minimum packet latency = 1228
Average packet latency = 8900.83
Maximum packet latency = 22929
Minimum network latency = 1228
Average network latency = 8900.33
Maximum network latency = 22929
Slowest packet = 23
Minimum flit latency = 58
Average flit latency = 5966.39
Maximum flit latency = 22924
Slowest flit = 106
Minimum fragmentation = 7
Average fragmentation = 4457.83
Maximum fragmentation = 17155
Minimum injected packet rate = 0 (at node 0)
Average injected packet rate = 4.88281e-06
Maximum injected packet rate = 3.75e-05 (at node 3)
Minimum accepted packet rate = 0 (at node 0)
Average accepted packet rate = 1.17187e-06
Maximum accepted packet rate = 3.75e-05 (at node 23)
Minimum injected flit rate = 0 (at node 0)
Average injected flit rate = 2.32422e-05
Maximum injected flit rate = 0.0001875 (at node 51)
Minimum accepted flit rate = 0 (at node 0)
Average accepted flit rate = 8.00781e-06
Maximum accepted flit rate = 0.0001875 (at node 23)
Total number of injected packets = 25
Total number of injected flits = 119
Average injected packet length = 4.76
Total number of accepted packets = 6
Total number of accepted flits = 41
Average accepted packet length = 6.83333
Total in-flight flits = 162 (89 measured)
===== Time: 120000 =====
Class 0:
Packets read from trace = 1299 of 20989170 (0%)
Future packets = 1
Waiting packets = 0
Stalled packets = 1186
Packets pending injection = 65
Packets in flight = 37
Minimum packet latency = 1228
Average packet latency = 8900.83
Maximum packet latency = 22929
Minimum network latency = 1228
Average network latency = 8900.33
Maximum network latency = 22929
Slowest packet = 23
Minimum flit latency = 58
Average flit latency = 5966.39
Maximum flit latency = 22924
Slowest flit = 106
Minimum fragmentation = 7
Average fragmentation = 4457.83
Maximum fragmentation = 17155
Minimum injected packet rate = 0 (at node 0)
Average injected packet rate = 4.34028e-06
Maximum injected packet rate = 3.33333e-05 (at node 3)
Minimum accepted packet rate = 0 (at node 0)
Average accepted packet rate = 1.04167e-06
Maximum accepted packet rate = 3.33333e-05 (at node 23)
Minimum injected flit rate = 0 (at node 0)
Average injected flit rate = 2.06597e-05
Maximum injected flit rate = 0.000166667 (at node 51)
Minimum accepted flit rate = 0 (at node 0)
Average accepted flit rate = 7.11806e-06
Maximum accepted flit rate = 0.000166667 (at node 23)
Total number of injected packets = 25
Total number of injected flits = 119
Average injected packet length = 4.76
Total number of accepted packets = 6
Total number of accepted flits = 41
Average accepted packet length = 6.83333
Total in-flight flits = 162 (89 measured)
===== Time: 130000 =====
Class 0:
Packets read from trace = 1319 of 20989170 (0%)
Future packets = 1
Waiting packets = 0
Stalled packets = 1206
Packets pending injection = 65
Packets in flight = 37
Minimum packet latency = 1228
Average packet latency = 8900.83
Maximum packet latency = 22929
Minimum network latency = 1228
Average network latency = 8900.33
Maximum network latency = 22929
Slowest packet = 23
Minimum flit latency = 58
Average flit latency = 5966.39
Maximum flit latency = 22924
Slowest flit = 106
Minimum fragmentation = 7
Average fragmentation = 4457.83
Maximum fragmentation = 17155
Minimum injected packet rate = 0 (at node 0)
Average injected packet rate = 3.90625e-06
Maximum injected packet rate = 3e-05 (at node 3)
Minimum accepted packet rate = 0 (at node 0)
Average accepted packet rate = 9.375e-07
Maximum accepted packet rate = 3e-05 (at node 23)
Minimum injected flit rate = 0 (at node 0)
Average injected flit rate = 1.85938e-05
Maximum injected flit rate = 0.00015 (at node 51)
Minimum accepted flit rate = 0 (at node 0)
Average accepted flit rate = 6.40625e-06
Maximum accepted flit rate = 0.00015 (at node 23)
Total number of injected packets = 25
Total number of injected flits = 119
Average injected packet length = 4.76
Total number of accepted packets = 6
Total number of accepted flits = 41
Average accepted packet length = 6.83333
Total in-flight flits = 162 (89 measured)
Completed measurements after 130000 cycles.
Draining remaining packets ...
Class 0:
Remaining flits: 12 13 14 15 16 17 18 19 20 21 [...] (162 flits)
Measured flits: 98 99 100 101 102 108 109 110 111 112 [...] (89 flits)
Class 0:
Remaining flits: 12 13 14 15 16 17 18 19 20 21 [...] (162 flits)
Measured flits: 98 99 100 101 102 108 109 110 111 112 [...] (89 flits)
Class 0:
Remaining flits: 12 13 14 15 16 17 18 19 20 21 [...] (156 flits)
Measured flits: 98 99 100 101 102 109 110 111 112 118 [...] (83 flits)
Class 0:
Remaining flits: 12 13 14 15 16 17 18 19 20 21 [...] (143 flits)
Measured flits: 98 99 100 101 102 118 119 120 121 122 [...] (71 flits)
Class 0:
Remaining flits: 12 13 14 15 16 17 18 19 20 21 [...] (138 flits)
Measured flits: 98 99 100 101 102 118 119 120 121 122 [...] (66 flits)
Class 0:
Remaining flits: 12 13 14 15 16 17 18 19 20 21 [...] (127 flits)
Measured flits: 98 99 100 101 102 118 119 120 121 122 [...] (55 flits)
Class 0:
Remaining flits: 12 13 14 15 16 17 18 19 20 21 [...] (127 flits)
Measured flits: 98 99 100 101 102 118 119 120 121 122 [...] (55 flits)
Class 0:
Remaining flits: 12 17 18 19 20 21 22 27 28 29 [...] (122 flits)
Measured flits: 98 99 100 101 102 118 119 120 121 122 [...] (54 flits)
Class 0:
Remaining flits: 12 18 19 20 21 22 27 28 29 30 [...] (113 flits)
Measured flits: 98 99 100 101 102 118 119 120 121 122 [...] (46 flits)
Class 0:
Remaining flits: 12 18 19 20 21 22 27 28 29 30 [...] (112 flits)
Measured flits: 98 99 100 101 102 118 119 120 121 122 [...] (45 flits)
Class 0:
Remaining flits: 12 18 19 20 21 22 27 28 29 30 [...] (107 flits)
Measured flits: 98 99 100 101 102 119 120 121 122 128 [...] (43 flits)
Class 0:
Remaining flits: 12 18 19 20 21 22 27 28 29 30 [...] (94 flits)
Measured flits: 98 99 100 101 102 128 129 130 131 132 [...] (32 flits)
Class 0:
Remaining flits: 12 18 19 20 21 22 27 28 29 30 [...] (91 flits)
Measured flits: 98 99 100 101 102 128 129 130 131 132 [...] (29 flits)
Class 0:
Remaining flits: 12 18 19 20 21 22 27 28 29 30 [...] (89 flits)
Measured flits: 98 99 100 101 102 128 129 130 131 132 [...] (27 flits)
Class 0:
Remaining flits: 12 18 19 20 21 22 27 28 29 30 [...] (76 flits)
Measured flits: 101 102 128 129 130 131 132 178 179 180 [...] (19 flits)
Class 0:
Remaining flits: 12 18 19 20 21 22 27 28 29 30 [...] (74 flits)
Measured flits: 128 129 130 131 132 178 179 180 181 182 [...] (17 flits)
Class 0:
Remaining flits: 12 18 19 20 21 22 27 28 29 30 [...] (74 flits)
Measured flits: 128 129 130 131 132 178 179 180 181 182 [...] (17 flits)
Class 0:
Remaining flits: 12 18 19 20 21 22 27 28 29 30 [...] (69 flits)
Measured flits: 128 129 130 131 132 178 179 180 181 182 [...] (16 flits)
Class 0:
Remaining flits: 12 18 19 20 21 22 27 28 29 30 [...] (64 flits)
Measured flits: 128 129 130 131 132 178 179 180 181 182 [...] (12 flits)
Class 0:
Remaining flits: 12 18 19 20 21 22 27 28 29 30 [...] (64 flits)
Measured flits: 128 129 130 131 132 178 179 180 181 182 [...] (12 flits)
Class 0:
Remaining flits: 12 18 19 20 21 22 27 28 29 30 [...] (64 flits)
Measured flits: 128 129 130 131 132 178 179 180 181 182 [...] (12 flits)
Class 0:
Remaining flits: 12 18 19 20 21 22 27 28 29 30 [...] (64 flits)
Measured flits: 128 129 130 131 132 178 179 180 181 182 [...] (12 flits)
Class 0:
Remaining flits: 12 18 19 20 21 22 27 28 29 30 [...] (64 flits)
Measured flits: 128 129 130 131 132 178 179 180 181 182 [...] (12 flits)
Class 0:
Remaining flits: 12 18 19 20 21 22 27 28 29 30 [...] (64 flits)
Measured flits: 128 129 130 131 132 178 179 180 181 182 [...] (12 flits)
Class 0:
Remaining flits: 12 18 19 20 21 22 27 28 29 30 [...] (64 flits)
Measured flits: 128 129 130 131 132 178 179 180 181 182 [...] (12 flits)
Class 0:
Remaining flits: 12 18 19 20 21 22 27 28 29 30 [...] (64 flits)
Measured flits: 128 129 130 131 132 178 179 180 181 182 [...] (12 flits)
Class 0:
Remaining flits: 12 18 19 20 21 22 27 28 29 30 [...] (64 flits)
Measured flits: 128 129 130 131 132 178 179 180 181 182 [...] (12 flits)
Class 0:
Remaining flits: 12 18 19 20 21 22 27 28 29 30 [...] (64 flits)
Measured flits: 128 129 130 131 132 178 179 180 181 182 [...] (12 flits)
Class 0:
Remaining flits: 12 18 19 20 21 22 27 28 29 30 [...] (64 flits)
Measured flits: 128 129 130 131 132 178 179 180 181 182 [...] (12 flits)
Class 0:
Remaining flits: 12 18 19 20 21 22 27 28 29 30 [...] (64 flits)
Measured flits: 128 129 130 131 132 178 179 180 181 182 [...] (12 flits)
Class 0:
Remaining flits: 12 18 19 20 21 22 27 28 29 30 [...] (64 flits)
Measured flits: 128 129 130 131 132 178 179 180 181 182 [...] (12 flits)
Class 0:
Remaining flits: 12 18 19 20 21 22 27 28 29 30 [...] (64 flits)
Measured flits: 128 129 130 131 132 178 179 180 181 182 [...] (12 flits)
Class 0:
Remaining flits: 12 18 19 20 21 22 27 28 29 30 [...] (64 flits)
Measured flits: 128 129 130 131 132 178 179 180 181 182 [...] (12 flits)
Class 0:
Remaining flits: 12 18 19 20 21 22 27 28 29 30 [...] (64 flits)
Measured flits: 128 129 130 131 132 178 179 180 181 182 [...] (12 flits)
Class 0:
Remaining flits: 12 18 19 20 21 22 27 28 29 30 [...] (64 flits)
Measured flits: 128 129 130 131 132 178 179 180 181 182 [...] (12 flits)
Class 0:
Remaining flits: 12 18 19 20 21 22 27 28 29 30 [...] (64 flits)
Measured flits: 128 129 130 131 132 178 179 180 181 182 [...] (12 flits)
Class 0:
Remaining flits: 12 18 19 20 21 22 27 28 29 30 [...] (64 flits)
Measured flits: 128 129 130 131 132 178 179 180 181 182 [...] (12 flits)
Class 0:
Remaining flits: 12 18 19 20 21 22 27 28 29 30 [...] (64 flits)
Measured flits: 128 129 130 131 132 178 179 180 181 182 [...] (12 flits)
Class 0:
Remaining flits: 12 18 19 20 21 22 27 28 29 30 [...] (64 flits)
Measured flits: 128 129 130 131 132 178 179 180 181 182 [...] (12 flits)
Class 0:
Remaining flits: 12 18 19 20 21 22 27 28 29 30 [...] (64 flits)
Measured flits: 128 129 130 131 132 178 179 180 181 182 [...] (12 flits)
Class 0:
Remaining flits: 12 18 19 20 21 22 27 28 29 30 [...] (64 flits)
Measured flits: 128 129 130 131 132 178 179 180 181 182 [...] (12 flits)
Class 0:
Remaining flits: 12 18 19 20 21 22 27 28 29 30 [...] (64 flits)
Measured flits: 128 129 130 131 132 178 179 180 181 182 [...] (12 flits)
Class 0:
Remaining flits: 12 18 19 20 21 22 27 28 29 30 [...] (64 flits)
Measured flits: 128 129 130 131 132 178 179 180 181 182 [...] (12 flits)
Class 0:
Remaining flits: 12 18 19 20 21 22 27 28 29 30 [...] (64 flits)
Measured flits: 128 129 130 131 132 178 179 180 181 182 [...] (12 flits)
Class 0:
Remaining flits: 12 18 19 20 21 22 27 28 29 30 [...] (64 flits)
Measured flits: 128 129 130 131 132 178 179 180 181 182 [...] (12 flits)
Class 0:
Remaining flits: 12 18 19 20 21 22 27 28 29 30 [...] (64 flits)
Measured flits: 128 129 130 131 132 178 179 180 181 182 [...] (12 flits)
Class 0:
Remaining flits: 12 18 19 20 21 22 27 28 29 30 [...] (64 flits)
Measured flits: 128 129 130 131 132 178 179 180 181 182 [...] (12 flits)
Class 0:
Remaining flits: 12 18 19 20 21 22 27 28 29 30 [...] (64 flits)
Measured flits: 128 129 130 131 132 178 179 180 181 182 [...] (12 flits)
Class 0:
Remaining flits: 12 18 19 20 21 22 27 28 29 30 [...] (64 flits)
Measured flits: 128 129 130 131 132 178 179 180 181 182 [...] (12 flits)
Class 0:
Remaining flits: 12 18 19 20 21 22 27 28 29 30 [...] (64 flits)
Measured flits: 128 129 130 131 132 178 179 180 181 182 [...] (12 flits)
Class 0:
Remaining flits: 12 18 19 20 21 22 27 28 29 30 [...] (64 flits)
Measured flits: 128 129 130 131 132 178 179 180 181 182 [...] (12 flits)
Class 0:
Remaining flits: 12 18 19 20 21 22 27 28 29 30 [...] (64 flits)
Measured flits: 128 129 130 131 132 178 179 180 181 182 [...] (12 flits)
Class 0:
Remaining flits: 12 18 19 20 21 22 27 28 29 30 [...] (64 flits)
Measured flits: 128 129 130 131 132 178 179 180 181 182 [...] (12 flits)
Class 0:
Remaining flits: 12 18 19 20 21 22 27 28 29 30 [...] (64 flits)
Measured flits: 128 129 130 131 132 178 179 180 181 182 [...] (12 flits)
Class 0:
Remaining flits: 12 18 19 20 21 22 27 28 29 30 [...] (64 flits)
Measured flits: 128 129 130 131 132 178 179 180 181 182 [...] (12 flits)
Class 0:
Remaining flits: 12 18 19 20 21 22 27 28 29 30 [...] (64 flits)
Measured flits: 128 129 130 131 132 178 179 180 181 182 [...] (12 flits)
Class 0:
Remaining flits: 12 18 19 20 21 22 27 28 29 30 [...] (64 flits)
Measured flits: 128 129 130 131 132 178 179 180 181 182 [...] (12 flits)
Class 0:
Remaining flits: 12 18 19 20 21 22 27 28 29 30 [...] (64 flits)
Measured flits: 128 129 130 131 132 178 179 180 181 182 [...] (12 flits)
Class 0:
Remaining flits: 12 18 19 20 21 22 27 28 29 30 [...] (64 flits)
Measured flits: 128 129 130 131 132 178 179 180 181 182 [...] (12 flits)
Class 0:
Remaining flits: 12 18 19 20 21 22 27 28 29 30 [...] (64 flits)
Measured flits: 128 129 130 131 132 178 179 180 181 182 [...] (12 flits)
Class 0:
Remaining flits: 12 18 19 20 21 22 27 28 29 30 [...] (64 flits)
Measured flits: 128 129 130 131 132 178 179 180 181 182 [...] (12 flits)
Class 0:
Remaining flits: 12 18 19 20 21 22 27 28 29 30 [...] (64 flits)
Measured flits: 128 129 130 131 132 178 179 180 181 182 [...] (12 flits)
Class 0:
Remaining flits: 12 18 19 20 21 22 27 28 29 30 [...] (64 flits)
Measured flits: 128 129 130 131 132 178 179 180 181 182 [...] (12 flits)
Class 0:
Remaining flits: 12 18 19 20 21 22 27 28 29 30 [...] (64 flits)
Measured flits: 128 129 130 131 132 178 179 180 181 182 [...] (12 flits)
Class 0:
Remaining flits: 12 18 19 20 21 22 27 28 29 30 [...] (64 flits)
Measured flits: 128 129 130 131 132 178 179 180 181 182 [...] (12 flits)
Class 0:
Remaining flits: 12 18 19 20 21 22 27 28 29 30 [...] (64 flits)
Measured flits: 128 129 130 131 132 178 179 180 181 182 [...] (12 flits)
Class 0:
Remaining flits: 12 18 19 20 21 22 27 28 29 30 [...] (64 flits)
Measured flits: 128 129 130 131 132 178 179 180 181 182 [...] (12 flits)
Class 0:
Remaining flits: 12 18 19 20 21 22 27 28 29 30 [...] (64 flits)
Measured flits: 128 129 130 131 132 178 179 180 181 182 [...] (12 flits)
Class 0:
Remaining flits: 12 18 19 20 21 22 27 28 29 30 [...] (64 flits)
Measured flits: 128 129 130 131 132 178 179 180 181 182 [...] (12 flits)
Class 0:
Remaining flits: 12 18 19 20 21 22 27 28 29 30 [...] (64 flits)
Measured flits: 128 129 130 131 132 178 179 180 181 182 [...] (12 flits)
Class 0:
Remaining flits: 12 18 19 20 21 22 27 28 29 30 [...] (64 flits)
Measured flits: 128 129 130 131 132 178 179 180 181 182 [...] (12 flits)
Class 0:
Remaining flits: 12 18 19 20 21 22 27 28 29 30 [...] (64 flits)
Measured flits: 128 129 130 131 132 178 179 180 181 182 [...] (12 flits)
Class 0:
Remaining flits: 12 18 19 20 21 22 27 28 29 30 [...] (64 flits)
Measured flits: 128 129 130 131 132 178 179 180 181 182 [...] (12 flits)
Class 0:
Remaining flits: 12 18 19 20 21 22 27 28 29 30 [...] (64 flits)
Measured flits: 128 129 130 131 132 178 179 180 181 182 [...] (12 flits)
Class 0:
Remaining flits: 12 18 19 20 21 22 27 28 29 30 [...] (64 flits)
Measured flits: 128 129 130 131 132 178 179 180 181 182 [...] (12 flits)
Class 0:
Remaining flits: 12 18 19 20 21 22 27 28 29 30 [...] (64 flits)
Measured flits: 128 129 130 131 132 178 179 180 181 182 [...] (12 flits)
Class 0:
Remaining flits: 12 18 19 20 21 22 27 28 29 30 [...] (64 flits)
Measured flits: 128 129 130 131 132 178 179 180 181 182 [...] (12 flits)
Class 0:
Remaining flits: 12 18 19 20 21 22 27 28 29 30 [...] (64 flits)
Measured flits: 128 129 130 131 132 178 179 180 181 182 [...] (12 flits)
Class 0:
Remaining flits: 12 18 19 20 21 22 27 28 29 30 [...] (64 flits)
Measured flits: 128 129 130 131 132 178 179 180 181 182 [...] (12 flits)
Class 0:
Remaining flits: 12 18 19 20 21 22 27 28 29 30 [...] (64 flits)
Measured flits: 128 129 130 131 132 178 179 180 181 182 [...] (12 flits)
Class 0:
Remaining flits: 12 18 19 20 21 22 27 28 29 30 [...] (64 flits)
Measured flits: 128 129 130 131 132 178 179 180 181 182 [...] (12 flits)
Class 0:
Remaining flits: 12 18 19 20 21 22 27 28 29 30 [...] (64 flits)
Measured flits: 128 129 130 131 132 178 179 180 181 182 [...] (12 flits)
Class 0:
Remaining flits: 12 18 19 20 21 22 27 28 29 30 [...] (64 flits)
Measured flits: 128 129 130 131 132 178 179 180 181 182 [...] (12 flits)
Class 0:
Remaining flits: 12 18 19 20 21 22 27 28 29 30 [...] (64 flits)
Measured flits: 128 129 130 131 132 178 179 180 181 182 [...] (12 flits)
Class 0:
Remaining flits: 12 18 19 20 21 22 27 28 29 30 [...] (64 flits)
Measured flits: 128 129 130 131 132 178 179 180 181 182 [...] (12 flits)
Class 0:
Remaining flits: 12 18 19 20 21 22 27 28 29 30 [...] (64 flits)
Measured flits: 128 129 130 131 132 178 179 180 181 182 [...] (12 flits)
Class 0:
Remaining flits: 12 18 19 20 21 22 27 28 29 30 [...] (64 flits)
Measured flits: 128 129 130 131 132 178 179 180 181 182 [...] (12 flits)
Class 0:
Remaining flits: 12 18 19 20 21 22 27 28 29 30 [...] (64 flits)
Measured flits: 128 129 130 131 132 178 179 180 181 182 [...] (12 flits)
Class 0:
Remaining flits: 12 18 19 20 21 22 27 28 29 30 [...] (64 flits)
Measured flits: 128 129 130 131 132 178 179 180 181 182 [...] (12 flits)
Class 0:
Remaining flits: 12 18 19 20 21 22 27 28 29 30 [...] (64 flits)
Measured flits: 128 129 130 131 132 178 179 180 181 182 [...] (12 flits)
Class 0:
Remaining flits: 12 18 19 20 21 22 27 28 29 30 [...] (64 flits)
Measured flits: 128 129 130 131 132 178 179 180 181 182 [...] (12 flits)
Class 0:
Remaining flits: 12 18 19 20 21 22 27 28 29 30 [...] (64 flits)
Measured flits: 128 129 130 131 132 178 179 180 181 182 [...] (12 flits)
Class 0:
Remaining flits: 12 18 19 20 21 22 27 28 29 30 [...] (64 flits)
Measured flits: 128 129 130 131 132 178 179 180 181 182 [...] (12 flits)
Class 0:
Remaining flits: 12 18 19 20 21 22 27 28 29 30 [...] (64 flits)
Measured flits: 128 129 130 131 132 178 179 180 181 182 [...] (12 flits)
Class 0:
Remaining flits: 12 18 19 20 21 22 27 28 29 30 [...] (64 flits)
Measured flits: 128 129 130 131 132 178 179 180 181 182 [...] (12 flits)
Class 0:
Remaining flits: 12 18 19 20 21 22 27 28 29 30 [...] (64 flits)
Measured flits: 128 129 130 131 132 178 179 180 181 182 [...] (12 flits)
Class 0:
Remaining flits: 12 18 19 20 21 22 27 28 29 30 [...] (64 flits)
Measured flits: 128 129 130 131 132 178 179 180 181 182 [...] (12 flits)
Class 0:
Remaining flits: 12 18 19 20 21 22 27 28 29 30 [...] (64 flits)
Measured flits: 128 129 130 131 132 178 179 180 181 182 [...] (12 flits)
Class 0:
Remaining flits: 12 18 19 20 21 22 27 28 29 30 [...] (64 flits)
Measured flits: 128 129 130 131 132 178 179 180 181 182 [...] (12 flits)
Class 0:
Remaining flits: 12 18 19 20 21 22 27 28 29 30 [...] (64 flits)
Measured flits: 128 129 130 131 132 178 179 180 181 182 [...] (12 flits)
Class 0:
Remaining flits: 12 18 19 20 21 22 27 28 29 30 [...] (64 flits)
Measured flits: 128 129 130 131 132 178 179 180 181 182 [...] (12 flits)
Time taken is 131000 cycles
====== Traffic class 0 ======

Total number of flits generated = 223, changed lanes = 0
Overall minimum packet latency = 1228 (1 samples)
Overall average packet latency = 59213.3 (1 samples)
Overall maximum packet latency = 98763 (1 samples)
Overall minimum network latency = 1228 (1 samples)
Overall average network latency = 58213.3 (1 samples)
Overall maximum network latency = 98763 (1 samples)
Overall minimum flit latency = 58 (1 samples)
Overall average flit latency = 54777.6 (1 samples)
Overall maximum flit latency = 128753 (1 samples)
Overall minimum fragmentation = 4 (1 samples)
Overall average fragmentation = 10145.7 (1 samples)
Overall maximum fragmentation = 76647 (1 samples)
Overall minimum injected packet rate = 0 (1 samples)
Overall average injected packet rate = 3.90625e-06 (1 samples)
Overall maximum injected packet rate = 3e-05 (1 samples)
Overall minimum accepted packet rate = 0 (1 samples)
Overall average accepted packet rate = 9.375e-07 (1 samples)
Overall maximum accepted packet rate = 3e-05 (1 samples)
Overall minimum injected flit rate = 0 (1 samples)
Overall average injected flit rate = 1.85938e-05 (1 samples)
Overall maximum injected flit rate = 0.00015 (1 samples)
Overall minimum accepted flit rate = 0 (1 samples)
Overall average accepted flit rate = 6.40625e-06 (1 samples)
Overall maximum accepted flit rate = 0.00015 (1 samples)
Overall average injected packet size = 4.76 (1 samples)
Overall average accepted packet size = 6.83333 (1 samples)
Overall average hops = 7.65217 (1 samples)
Overall throughput of the network (flits/cycle) = 0.00159
Overall throughput of the network (packets/cycle) = 0.00032
Overall workload runtime = 100000 (1 samples)

The distribution of the source packets of size 1 is: 

Source [0] = 0
Source [1] = 0
Source [2] = 1
Source [3] = 0
Source [4] = 0
Source [5] = 0
Source [6] = 0
Source [7] = 0
Source [8] = 0
Source [9] = 0
Source [10] = 0
Source [11] = 0
Source [12] = 0
Source [13] = 0
Source [14] = 0
Source [15] = 0
Source [16] = 0
Source [17] = 0
Source [18] = 0
Source [19] = 0
Source [20] = 0
Source [21] = 0
Source [22] = 0
Source [23] = 0
Source [24] = 0
Source [25] = 0
Source [26] = 0
Source [27] = 0
Source [28] = 0
Source [29] = 0
Source [30] = 0
Source [31] = 0
Source [32] = 0
Source [33] = 0
Source [34] = 0
Source [35] = 0
Source [36] = 0
Source [37] = 0
Source [38] = 1
Source [39] = 0
Source [40] = 0
Source [41] = 0
Source [42] = 0
Source [43] = 0
Source [44] = 0
Source [45] = 0
Source [46] = 0
Source [47] = 0
Source [48] = 0
Source [49] = 0
Source [50] = 0
Source [51] = 0
Source [52] = 0
Source [53] = 0
Source [54] = 0
Source [55] = 0
Source [56] = 0
Source [57] = 0
Source [58] = 1
Source [59] = 0
Source [60] = 0
Source [61] = 0
Source [62] = 0
Source [63] = 0
The distribution of the source packets of size 5 is: 

Source [0] = 0
Source [1] = 1
Source [2] = 2
Source [3] = 3
Source [4] = 1
Source [5] = 3
Source [6] = 2
Source [7] = 2
Source [8] = 0
Source [9] = 1
Source [10] = 1
Source [11] = 0
Source [12] = 0
Source [13] = 0
Source [14] = 0
Source [15] = 0
Source [16] = 0
Source [17] = 1
Source [18] = 0
Source [19] = 0
Source [20] = 0
Source [21] = 2
Source [22] = 1
Source [23] = 1
Source [24] = 0
Source [25] = 1
Source [26] = 0
Source [27] = 0
Source [28] = 0
Source [29] = 1
Source [30] = 0
Source [31] = 0
Source [32] = 1
Source [33] = 0
Source [34] = 0
Source [35] = 0
Source [36] = 0
Source [37] = 0
Source [38] = 2
Source [39] = 0
Source [40] = 3
Source [41] = 1
Source [42] = 0
Source [43] = 0
Source [44] = 1
Source [45] = 1
Source [46] = 0
Source [47] = 0
Source [48] = 1
Source [49] = 1
Source [50] = 0
Source [51] = 3
Source [52] = 1
Source [53] = 0
Source [54] = 3
Source [55] = 0
Source [56] = 0
Source [57] = 2
Source [58] = 0
Source [59] = 1
Source [60] = 0
Source [61] = 0
Source [62] = 0
Source [63] = 0
The distribution of the dest packets of size 1 is: 

dest [0] = 0
dest [1] = 0
dest [2] = 0
dest [3] = 0
dest [4] = 0
dest [5] = 0
dest [6] = 0
dest [7] = 0
dest [8] = 0
dest [9] = 0
dest [10] = 0
dest [11] = 0
dest [12] = 0
dest [13] = 0
dest [14] = 0
dest [15] = 0
dest [16] = 0
dest [17] = 0
dest [18] = 0
dest [19] = 0
dest [20] = 0
dest [21] = 0
dest [22] = 0
dest [23] = 0
dest [24] = 0
dest [25] = 0
dest [26] = 0
dest [27] = 0
dest [28] = 0
dest [29] = 0
dest [30] = 0
dest [31] = 0
dest [32] = 0
dest [33] = 0
dest [34] = 0
dest [35] = 0
dest [36] = 0
dest [37] = 0
dest [38] = 2
dest [39] = 0
dest [40] = 0
dest [41] = 0
dest [42] = 0
dest [43] = 0
dest [44] = 0
dest [45] = 0
dest [46] = 0
dest [47] = 0
dest [48] = 0
dest [49] = 0
dest [50] = 0
dest [51] = 0
dest [52] = 0
dest [53] = 0
dest [54] = 0
dest [55] = 0
dest [56] = 0
dest [57] = 0
dest [58] = 1
dest [59] = 0
dest [60] = 0
dest [61] = 0
dest [62] = 0
dest [63] = 0
The distribution of the dest packets of size 5 is: 

dest [0] = 0
dest [1] = 0
dest [2] = 6
dest [3] = 0
dest [4] = 0
dest [5] = 8
dest [6] = 0
dest [7] = 0
dest [8] = 0
dest [9] = 0
dest [10] = 0
dest [11] = 0
dest [12] = 0
dest [13] = 0
dest [14] = 0
dest [15] = 0
dest [16] = 3
dest [17] = 0
dest [18] = 0
dest [19] = 0
dest [20] = 0
dest [21] = 0
dest [22] = 0
dest [23] = 7
dest [24] = 0
dest [25] = 0
dest [26] = 0
dest [27] = 0
dest [28] = 0
dest [29] = 0
dest [30] = 0
dest [31] = 0
dest [32] = 0
dest [33] = 0
dest [34] = 0
dest [35] = 0
dest [36] = 0
dest [37] = 0
dest [38] = 0
dest [39] = 0
dest [40] = 3
dest [41] = 0
dest [42] = 0
dest [43] = 0
dest [44] = 0
dest [45] = 0
dest [46] = 0
dest [47] = 7
dest [48] = 0
dest [49] = 0
dest [50] = 0
dest [51] = 0
dest [52] = 0
dest [53] = 0
dest [54] = 0
dest [55] = 0
dest [56] = 0
dest [57] = 0
dest [58] = 7
dest [59] = 0
dest [60] = 0
dest [61] = 3
dest [62] = 0
dest [63] = 0Total run time 604.166
