BEGIN Configuration File: ./examples/mesh88_injection
// Topology

topology = mesh;//mesh;
k = 3;
n = 2;

// Routing
routing_function = dor;	//valiant

// Flow control
num_vcs     = 4;
vc_buf_size = 4;
wait_for_tail_credit = 1;

// Router architecture
vc_allocator = islip;
sw_allocator = islip;
alloc_iters  = 1;//?????

credit_delay   = 2;
routing_delay  = 1;
vc_alloc_delay = 1;
sw_alloc_delay = 1;

input_speedup     = 1;
output_speedup    = 1;
internal_speedup  = 1.0;

vc_busy_when_full = 0;

// Traffic
traffic = tornado;
packet_size = 5;

// Simulation
sim_type = throughput;
max_samples = 1000000;

injection_rate=0.5;

END Configuration File: ./examples/mesh88_injection
source_router,source_port,dest_router,dest_port

0,0,1,1	
0,1,2,0	
0,2,3,3	
0,3,6,2	
1,0,2,1	
1,1,0,0	
1,2,4,3	
1,3,7,2	
2,0,0,1	
2,1,1,0	
2,2,5,3	
2,3,8,2	
3,0,4,1	
3,1,5,0	
3,2,6,3	
3,3,0,2	
4,0,5,1	
4,1,3,0	
4,2,7,3	
4,3,1,2	
5,0,3,1	
5,1,4,0	
5,2,8,3	
5,3,2,2	
6,0,7,1	
6,1,8,0	
6,2,0,3	
6,3,3,2	
7,0,8,1	
7,1,6,0	
7,2,1,3	
7,3,4,2	
8,0,6,1	
8,1,7,0	
8,2,2,3	
8,3,5,2	
Time:,0,4,[0][0],GenFlit,-1

Time:,0,4,[1][0],GenFlit,-1

Time:,0,4,[2][0],GenFlit,-1

Time:,0,4,[3][0],GenFlit,-1

Time:,0,4,[4][0],GenFlit,-1

Time:,0,5,[5][1],GenFlit,-1

Time:,0,5,[6][1],GenFlit,-1

Time:,0,5,[7][1],GenFlit,-1

Time:,0,5,[8][1],GenFlit,-1

Time:,0,5,[9][1],GenFlit,-1

Time:,0,8,[10][2],GenFlit,-1

Time:,0,8,[11][2],GenFlit,-1

Time:,0,8,[12][2],GenFlit,-1

Time:,0,8,[13][2],GenFlit,-1

Time:,0,8,[14][2],GenFlit,-1

Time:,1,0,[15][3],GenFlit,-1

Time:,1,0,[16][3],GenFlit,-1

Time:,1,0,[17][3],GenFlit,-1

Time:,1,0,[18][3],GenFlit,-1

Time:,1,0,[19][3],GenFlit,-1

Time:,1,2,[20][4],GenFlit,-1

Time:,1,2,[21][4],GenFlit,-1

Time:,1,2,[22][4],GenFlit,-1

Time:,1,2,[23][4],GenFlit,-1

Time:,1,2,[24][4],GenFlit,-1

Time:,1,3,[25][5],GenFlit,-1

Time:,1,3,[26][5],GenFlit,-1

Time:,1,3,[27][5],GenFlit,-1

Time:,1,3,[28][5],GenFlit,-1

Time:,1,3,[29][5],GenFlit,-1

Time:,1,6,[30][6],GenFlit,-1

Time:,1,6,[31][6],GenFlit,-1

Time:,1,6,[32][6],GenFlit,-1

Time:,1,6,[33][6],GenFlit,-1

Time:,1,6,[34][6],GenFlit,-1

Time:,1,7,[35][7],GenFlit,-1

Time:,1,7,[36][7],GenFlit,-1

Time:,1,7,[37][7],GenFlit,-1

Time:,1,7,[38][7],GenFlit,-1

Time:,1,7,[39][7],GenFlit,-1

Time:,2,4,[0][0],ReceiveFlit,0

Time:,2,5,[5][1],ReceiveFlit,0

Time:,2,8,[10][2],ReceiveFlit,0

Time:,2,1,[40][8],GenFlit,-1

Time:,2,1,[41][8],GenFlit,-1

Time:,2,1,[42][8],GenFlit,-1

Time:,2,1,[43][8],GenFlit,-1

Time:,2,1,[44][8],GenFlit,-1

Time:,2,4,[0][0],InputQueueing,0

Time:,2,5,[5][1],InputQueueing,0

Time:,2,8,[10][2],InputQueueing,0

Time:,3,0,[15][3],ReceiveFlit,0

Time:,3,2,[20][4],ReceiveFlit,0

Time:,3,3,[25][5],ReceiveFlit,0

Time:,3,4,[1][0],ReceiveFlit,0

Time:,3,5,[6][1],ReceiveFlit,0

Time:,3,6,[30][6],ReceiveFlit,0

Time:,3,7,[35][7],ReceiveFlit,0

Time:,3,8,[11][2],ReceiveFlit,0

Time:,3,0,[15][3],InputQueueing,0

Time:,3,2,[20][4],InputQueueing,0

Time:,3,3,[25][5],InputQueueing,0

Time:,3,4,[1][0],InputQueueing,0

Time:,3,4,[0][0],VCUpdate,0

Time:,3,5,[6][1],InputQueueing,0

Time:,3,5,[5][1],VCUpdate,0

Time:,3,6,[30][6],InputQueueing,0

Time:,3,7,[35][7],InputQueueing,0

Time:,3,8,[11][2],InputQueueing,0

Time:,3,8,[10][2],VCUpdate,0

Time:,4,0,[16][3],ReceiveFlit,0

Time:,4,1,[40][8],ReceiveFlit,0

Time:,4,2,[21][4],ReceiveFlit,0

Time:,4,3,[26][5],ReceiveFlit,0

Time:,4,4,[2][0],ReceiveFlit,0

Time:,4,5,[7][1],ReceiveFlit,0

Time:,4,6,[31][6],ReceiveFlit,0

Time:,4,7,[36][7],ReceiveFlit,0

Time:,4,8,[12][2],ReceiveFlit,0

Time:,4,0,[16][3],InputQueueing,0

Time:,4,0,[15][3],VCUpdate,0

Time:,4,1,[40][8],InputQueueing,0

Time:,4,2,[21][4],InputQueueing,0

Time:,4,2,[20][4],VCUpdate,0

Time:,4,3,[26][5],InputQueueing,0

Time:,4,3,[25][5],VCUpdate,0

Time:,4,4,[2][0],InputQueueing,0

Time:,4,4,[0][0],SWUpdate,0

Time:,4,5,[7][1],InputQueueing,0

Time:,4,5,[5][1],SWUpdate,0

Time:,4,6,[31][6],InputQueueing,0

Time:,4,6,[30][6],VCUpdate,0

Time:,4,7,[36][7],InputQueueing,0

Time:,4,7,[35][7],VCUpdate,0

Time:,4,8,[12][2],InputQueueing,0

Time:,4,8,[10][2],SWUpdate,0

Time:,4,4,[0][0],SendingFlit,0

Time:,4,5,[5][1],SendingFlit,0

Time:,4,8,[10][2],SendingFlit,0

Time:,5,0,[17][3],ReceiveFlit,0

Time:,5,1,[41][8],ReceiveFlit,0

Time:,5,2,[22][4],ReceiveFlit,0

Time:,5,3,[27][5],ReceiveFlit,0

Time:,5,4,[3][0],ReceiveFlit,0

Time:,5,5,[8][1],ReceiveFlit,0

Time:,5,6,[32][6],ReceiveFlit,0

Time:,5,7,[37][7],ReceiveFlit,0

Time:,5,8,[13][2],ReceiveFlit,0

Time:,5,0,[17][3],InputQueueing,0

Time:,5,0,[15][3],SWUpdate,0

Time:,5,1,[41][8],InputQueueing,0

Time:,5,1,[40][8],VCUpdate,0

Time:,5,2,[22][4],InputQueueing,0

Time:,5,2,[20][4],SWUpdate,0

Time:,5,3,[27][5],InputQueueing,0

Time:,5,3,[25][5],SWUpdate,0

Time:,5,4,[3][0],InputQueueing,0

Time:,5,4,[1][0],SWUpdate,0

Time:,5,5,[8][1],InputQueueing,0

Time:,5,5,[6][1],SWUpdate,0

Time:,5,6,[32][6],InputQueueing,0

Time:,5,6,[30][6],SWUpdate,0

Time:,5,7,[37][7],InputQueueing,0

Time:,5,7,[35][7],SWUpdate,0

Time:,5,8,[13][2],InputQueueing,0

Time:,5,8,[11][2],SWUpdate,0

Time:,5,0,[15][3],SendingFlit,0

Time:,5,2,[20][4],SendingFlit,0

Time:,5,3,[25][5],SendingFlit,0

Time:,5,4,[1][0],SendingFlit,0

Time:,5,5,[6][1],SendingFlit,0

Time:,5,6,[30][6],SendingFlit,0

Time:,5,7,[35][7],SendingFlit,0

Time:,5,8,[11][2],SendingFlit,0

Time:,6,0,[18][3],ReceiveFlit,0

Time:,6,1,[42][8],ReceiveFlit,0

Time:,6,2,[23][4],ReceiveFlit,0

Time:,6,3,[28][5],ReceiveFlit,0

Time:,6,4,[5][1],ReceiveFlit,0

Time:,6,5,[0][0],ReceiveFlit,0

Time:,6,6,[33][6],ReceiveFlit,0

Time:,6,7,[10][2],ReceiveFlit,0

Time:,6,7,[38][7],ReceiveFlit,0

Time:,6,0,[18][3],InputQueueing,0

Time:,6,0,[16][3],SWUpdate,0

Time:,6,1,[42][8],InputQueueing,0

Time:,6,1,[40][8],SWUpdate,0

Time:,6,2,[23][4],InputQueueing,0

Time:,6,2,[21][4],SWUpdate,0

Time:,6,3,[28][5],InputQueueing,0

Time:,6,3,[26][5],SWUpdate,0

Time:,6,4,[5][1],InputQueueing,0

Time:,6,4,[2][0],SWUpdate,0

Time:,6,5,[0][0],InputQueueing,0

Time:,6,5,[7][1],SWUpdate,0

Time:,6,6,[33][6],InputQueueing,0

Time:,6,6,[31][6],SWUpdate,0

Time:,6,7,[10][2],InputQueueing,0

Time:,6,7,[38][7],InputQueueing,0

Time:,6,7,[36][7],SWUpdate,0

Time:,6,8,[12][2],SWUpdate,0

Time:,6,0,[16][3],SendingFlit,0

Time:,6,1,[40][8],SendingFlit,0

Time:,6,2,[21][4],SendingFlit,0

Time:,6,3,[26][5],SendingFlit,0

Time:,6,4,[2][0],SendingFlit,0

Time:,6,5,[7][1],SendingFlit,0

Time:,6,6,[31][6],SendingFlit,0

Time:,6,7,[36][7],SendingFlit,0

Time:,6,8,[12][2],SendingFlit,0

Time:,7,1,[20][4],ReceiveFlit,0

Time:,7,1,[15][3],ReceiveFlit,0

Time:,7,1,[43][8],ReceiveFlit,0

Time:,7,4,[6][1],ReceiveFlit,0

Time:,7,4,[25][5],ReceiveFlit,0

Time:,7,5,[1][0],ReceiveFlit,0

Time:,7,7,[11][2],ReceiveFlit,0

Time:,7,7,[30][6],ReceiveFlit,0

Time:,7,8,[35][7],ReceiveFlit,0

Time:,7,4,[45][9],GenFlit,-1

Time:,7,4,[46][9],GenFlit,-1

Time:,7,4,[47][9],GenFlit,-1

Time:,7,4,[48][9],GenFlit,-1

Time:,7,4,[49][9],GenFlit,-1

Time:,7,5,[50][10],GenFlit,-1

Time:,7,5,[51][10],GenFlit,-1

Time:,7,5,[52][10],GenFlit,-1

Time:,7,5,[53][10],GenFlit,-1

Time:,7,5,[54][10],GenFlit,-1

Time:,7,8,[55][11],GenFlit,-1

Time:,7,8,[56][11],GenFlit,-1

Time:,7,8,[57][11],GenFlit,-1

Time:,7,8,[58][11],GenFlit,-1

Time:,7,8,[59][11],GenFlit,-1

Time:,7,0,[17][3],SWUpdate,0

Time:,7,1,[20][4],InputQueueing,0

Time:,7,1,[15][3],InputQueueing,0

Time:,7,1,[43][8],InputQueueing,0

Time:,7,1,[41][8],SWUpdate,0

Time:,7,2,[22][4],SWUpdate,0

Time:,7,3,[27][5],SWUpdate,0

Time:,7,4,[6][1],InputQueueing,0

Time:,7,4,[25][5],InputQueueing,0

Time:,7,4,[5][1],VCUpdate,0

Time:,7,4,[3][0],SWUpdate,0

Time:,7,5,[1][0],InputQueueing,0

Time:,7,5,[0][0],VCUpdate,0

Time:,7,5,[8][1],SWUpdate,0

Time:,7,6,[32][6],SWUpdate,0

Time:,7,7,[11][2],InputQueueing,0

Time:,7,7,[30][6],InputQueueing,0

Time:,7,7,[10][2],VCUpdate,0

Time:,7,7,[37][7],SWUpdate,0

Time:,7,8,[35][7],InputQueueing,0

Time:,7,8,[13][2],SWUpdate,0

Time:,7,0,[17][3],SendingFlit,0

Time:,7,1,[41][8],SendingFlit,0

Time:,7,2,[22][4],SendingFlit,0

Time:,7,3,[27][5],SendingFlit,0

Time:,7,4,[3][0],SendingFlit,0

Time:,7,5,[8][1],SendingFlit,0

Time:,7,6,[32][6],SendingFlit,0

Time:,7,7,[37][7],SendingFlit,0

Time:,7,8,[13][2],SendingFlit,0

Time:,8,5,[13][2],ReceiveFlit,0

Time:,8,8,[8][1],ReceiveFlit,0

Time:,8,6,[32][6],RetFlit,0

Time:,9,7,[37][7],RetFlit,0

