make: Nothing to be done for 'all'.
Master: Running timer....
Master: Running SRC....
BEGIN Configuration File: ./examples/mesh88_lat_blackscholes
// $Id$

topology = mesh;
k = 8;
n = 2;

// Routing
routing_function = dor;

// Flow control
num_vcs     = 1;
vc_buf_size = 4;
wait_for_tail_credit = 1;

// Router architecture
vc_allocator = islip;
sw_allocator = islip;
alloc_iters  = 1;

credit_delay   = 1;
routing_delay  = 1;
vc_alloc_delay = 1;
sw_alloc_delay = 1;

input_speedup     = 1;
output_speedup    = 1;
internal_speedup  = 1.0;

vc_busy_when_full = 0;

// Traffic
workload=netrace({/home/sarab/Downloads/BookSim_Benchmark_files/dedup_64c_simmedium.tra.bz2,100000000,1,2,1,1,0);

// Simulation
sim_type = workload;

END Configuration File: ./examples/mesh88_lat_blackscholes
Warming up...
===== Time: 10000 =====
Class 0:
Packets read from trace = 81 of 100000000 (0%)
Future packets = 1
Waiting packets = 0
Stalled packets = 66
Packets pending injection = 1
Packets in flight = 5
Minimum packet latency = 60
Average packet latency = 637.25
Maximum packet latency = 2239
Minimum network latency = 60
Average network latency = 636.5
Maximum network latency = 2236
Slowest packet = 5
Minimum flit latency = 58
Average flit latency = 200.682
Maximum flit latency = 2227
Slowest flit = 17
Minimum fragmentation = 0
Average fragmentation = 535.25
Maximum fragmentation = 2102
Minimum injected packet rate = 0 (at node 0)
Average injected packet rate = 2.03125e-05
Maximum injected packet rate = 0.0003 (at node 14)
Minimum accepted packet rate = 0 (at node 0)
Average accepted packet rate = 1.25e-05
Maximum accepted packet rate = 0.0002 (at node 20)
Minimum injected flit rate = 0 (at node 0)
Average injected flit rate = 8.125e-05
Maximum injected flit rate = 0.0015 (at node 14)
Minimum accepted flit rate = 0 (at node 0)
Average accepted flit rate = 6.875e-05
Maximum accepted flit rate = 0.0014 (at node 58)
Total number of injected packets = 13
Total number of injected flits = 52
Average injected packet length = 4
Total number of accepted packets = 8
Total number of accepted flits = 44
Average accepted packet length = 5.5
Total in-flight flits = 9 (0 measured)
===== Time: 20000 =====
Class 0:
Packets read from trace = 139 of 100000000 (0%)
Future packets = 1
Waiting packets = 0
Stalled packets = 116
Packets pending injection = 5
Packets in flight = 7
Minimum packet latency = 60
Average packet latency = 1139.7
Maximum packet latency = 4489
Minimum network latency = 60
Average network latency = 1138.8
Maximum network latency = 4486
Slowest packet = 8
Minimum flit latency = 46
Average flit latency = 306.04
Maximum flit latency = 4477
Slowest flit = 32
Minimum fragmentation = 0
Average fragmentation = 1043
Maximum fragmentation = 4388
Minimum injected packet rate = 0 (at node 0)
Average injected packet rate = 1.25e-05
Maximum injected packet rate = 0.00015 (at node 14)
Minimum accepted packet rate = 0 (at node 0)
Average accepted packet rate = 7.8125e-06
Maximum accepted packet rate = 0.0001 (at node 5)
Minimum injected flit rate = 0 (at node 0)
Average injected flit rate = 5.23438e-05
Maximum injected flit rate = 0.00075 (at node 14)
Minimum accepted flit rate = 0 (at node 0)
Average accepted flit rate = 3.90625e-05
Maximum accepted flit rate = 0.0007 (at node 58)
Total number of injected packets = 16
Total number of injected flits = 67
Average injected packet length = 4.1875
Total number of accepted packets = 10
Total number of accepted flits = 50
Average accepted packet length = 5
Total in-flight flits = 23 (0 measured)
===== Time: 30000 =====
Class 0:
Packets read from trace = 159 of 100000000 (0%)
Future packets = 1
Waiting packets = 0
Stalled packets = 133
Packets pending injection = 7
Packets in flight = 8
Minimum packet latency = 60
Average packet latency = 1139.7
Maximum packet latency = 4489
Minimum network latency = 60
Average network latency = 1138.8
Maximum network latency = 4486
Slowest packet = 8
Minimum flit latency = 46
Average flit latency = 306.04
Maximum flit latency = 4477
Slowest flit = 32
Minimum fragmentation = 0
Average fragmentation = 1043
Maximum fragmentation = 4388
Minimum injected packet rate = 0 (at node 0)
Average injected packet rate = 8.85417e-06
Maximum injected packet rate = 0.0001 (at node 14)
Minimum accepted packet rate = 0 (at node 0)
Average accepted packet rate = 5.20833e-06
Maximum accepted packet rate = 6.66667e-05 (at node 5)
Minimum injected flit rate = 0 (at node 0)
Average injected flit rate = 3.69792e-05
Maximum injected flit rate = 0.0005 (at node 14)
Minimum accepted flit rate = 0 (at node 0)
Average accepted flit rate = 2.60417e-05
Maximum accepted flit rate = 0.000466667 (at node 58)
Total number of injected packets = 17
Total number of injected flits = 71
Average injected packet length = 4.17647
Total number of accepted packets = 10
Total number of accepted flits = 50
Average accepted packet length = 5
Total in-flight flits = 28 (0 measured)
Warmup ends after 30000 cycles.
Beginning measurements...
===== Time: 40000 =====
Class 0:
Packets read from trace = 259 of 100000000 (0%)
Future packets = 1
Waiting packets = 0
Stalled packets = 221
Packets pending injection = 12
Packets in flight = 9
Minimum packet latency = 57
Average packet latency = 92.8
Maximum packet latency = 135
Minimum network latency = 54
Average network latency = 90.4
Maximum network latency = 132
Slowest packet = 20
Minimum flit latency = 45
Average flit latency = 748.235
Maximum flit latency = 23324
Slowest flit = 42
Minimum fragmentation = 4
Average fragmentation = 40.4
Maximum fragmentation = 82
Minimum injected packet rate = 0 (at node 0)
Average injected packet rate = 1.09375e-05
Maximum injected packet rate = 0.0006 (at node 26)
Minimum accepted packet rate = 0 (at node 0)
Average accepted packet rate = 9.375e-06
Maximum accepted packet rate = 0.0005 (at node 16)
Minimum injected flit rate = 0 (at node 0)
Average injected flit rate = 5.46875e-05
Maximum injected flit rate = 0.003 (at node 26)
Minimum accepted flit rate = 0 (at node 0)
Average accepted flit rate = 5.3125e-05
Maximum accepted flit rate = 0.0029 (at node 16)
Total number of injected packets = 7
Total number of injected flits = 35
Average injected packet length = 5
Total number of accepted packets = 6
Total number of accepted flits = 34
Average accepted packet length = 5.66667
Total in-flight flits = 29 (2 measured)
===== Time: 50000 =====
Class 0:
Packets read from trace = 299 of 100000000 (0%)
Future packets = 1
Waiting packets = 0
Stalled packets = 252
Packets pending injection = 11
Packets in flight = 9
Minimum packet latency = 54
Average packet latency = 2864.5
Maximum packet latency = 14273
Minimum network latency = 54
Average network latency = 2860
Maximum network latency = 14269
Slowest packet = 18
Minimum flit latency = 45
Average flit latency = 7935.67
Maximum flit latency = 39980
Slowest flit = 7
Minimum fragmentation = 0
Average fragmentation = 2800.7
Maximum fragmentation = 14135
Minimum injected packet rate = 0 (at node 0)
Average injected packet rate = 1.40625e-05
Maximum injected packet rate = 0.0004 (at node 26)
Minimum accepted packet rate = 0 (at node 0)
Average accepted packet rate = 1.25e-05
Maximum accepted packet rate = 0.0004 (at node 16)
Minimum injected flit rate = 0 (at node 0)
Average injected flit rate = 6.64063e-05
Maximum injected flit rate = 0.002 (at node 26)
Minimum accepted flit rate = 0 (at node 0)
Average accepted flit rate = 6.09375e-05
Maximum accepted flit rate = 0.002 (at node 16)
Total number of injected packets = 18
Total number of injected flits = 85
Average injected packet length = 4.72222
Total number of accepted packets = 16
Total number of accepted flits = 78
Average accepted packet length = 4.875
Total in-flight flits = 31 (27 measured)
===== Time: 60000 =====
Class 0:
Packets read from trace = 341 of 100000000 (0%)
Future packets = 1
Waiting packets = 0
Stalled packets = 288
Packets pending injection = 16
Packets in flight = 10
Minimum packet latency = 54
Average packet latency = 2864.5
Maximum packet latency = 14273
Minimum network latency = 54
Average network latency = 2860
Maximum network latency = 14269
Slowest packet = 18
Minimum flit latency = 45
Average flit latency = 7935.67
Maximum flit latency = 39980
Slowest flit = 7
Minimum fragmentation = 0
Average fragmentation = 2800.7
Maximum fragmentation = 14135
Minimum injected packet rate = 0 (at node 0)
Average injected packet rate = 9.375e-06
Maximum injected packet rate = 0.000266667 (at node 26)
Minimum accepted packet rate = 0 (at node 0)
Average accepted packet rate = 8.33333e-06
Maximum accepted packet rate = 0.000266667 (at node 16)
Minimum injected flit rate = 0 (at node 0)
Average injected flit rate = 4.42708e-05
Maximum injected flit rate = 0.00133333 (at node 26)
Minimum accepted flit rate = 0 (at node 0)
Average accepted flit rate = 4.0625e-05
Maximum accepted flit rate = 0.00133333 (at node 16)
Total number of injected packets = 18
Total number of injected flits = 85
Average injected packet length = 4.72222
Total number of accepted packets = 16
Total number of accepted flits = 78
Average accepted packet length = 4.875
Total in-flight flits = 36 (32 measured)
===== Time: 70000 =====
Class 0:
Packets read from trace = 409 of 100000000 (0%)
Future packets = 1
Waiting packets = 0
Stalled packets = 344
Packets pending injection = 21
Packets in flight = 13
Minimum packet latency = 54
Average packet latency = 9699.23
Maximum packet latency = 50077
Minimum network latency = 54
Average network latency = 5453.85
Maximum network latency = 21603
Slowest packet = 32
Minimum flit latency = 45
Average flit latency = 7609.45
Maximum flit latency = 39980
Slowest flit = 7
Minimum fragmentation = 0
Average fragmentation = 3735.08
Maximum fragmentation = 20354
Minimum injected packet rate = 0 (at node 0)
Average injected packet rate = 9.76563e-06
Maximum injected packet rate = 0.00025 (at node 26)
Minimum accepted packet rate = 0 (at node 0)
Average accepted packet rate = 7.8125e-06
Maximum accepted packet rate = 0.000225 (at node 16)
Minimum injected flit rate = 0 (at node 0)
Average injected flit rate = 4.64844e-05
Maximum injected flit rate = 0.001225 (at node 26)
Minimum accepted flit rate = 0 (at node 0)
Average accepted flit rate = 3.82812e-05
Maximum accepted flit rate = 0.001125 (at node 16)
Total number of injected packets = 25
Total number of injected flits = 119
Average injected packet length = 4.76
Total number of accepted packets = 20
Total number of accepted flits = 98
Average accepted packet length = 4.9
Total in-flight flits = 51 (48 measured)
===== Time: 80000 =====
Class 0:
Packets read from trace = 449 of 100000000 (0%)
Future packets = 1
Waiting packets = 0
Stalled packets = 383
Packets pending injection = 21
Packets in flight = 14
Minimum packet latency = 54
Average packet latency = 9699.23
Maximum packet latency = 50077
Minimum network latency = 54
Average network latency = 5453.85
Maximum network latency = 21603
Slowest packet = 32
Minimum flit latency = 45
Average flit latency = 7609.45
Maximum flit latency = 39980
Slowest flit = 7
Minimum fragmentation = 0
Average fragmentation = 3735.08
Maximum fragmentation = 20354
Minimum injected packet rate = 0 (at node 0)
Average injected packet rate = 7.8125e-06
Maximum injected packet rate = 0.0002 (at node 26)
Minimum accepted packet rate = 0 (at node 0)
Average accepted packet rate = 6.25e-06
Maximum accepted packet rate = 0.00018 (at node 16)
Minimum injected flit rate = 0 (at node 0)
Average injected flit rate = 3.71875e-05
Maximum injected flit rate = 0.00098 (at node 26)
Minimum accepted flit rate = 0 (at node 0)
Average accepted flit rate = 3.0625e-05
Maximum accepted flit rate = 0.0009 (at node 16)
Total number of injected packets = 25
Total number of injected flits = 119
Average injected packet length = 4.76
Total number of accepted packets = 20
Total number of accepted flits = 98
Average accepted packet length = 4.9
Total in-flight flits = 56 (53 measured)
===== Time: 90000 =====
Class 0:
Packets read from trace = 479 of 100000000 (0%)
Future packets = 1
Waiting packets = 0
Stalled packets = 409
Packets pending injection = 19
Packets in flight = 17
Minimum packet latency = 54
Average packet latency = 13746.9
Maximum packet latency = 55729
Minimum network latency = 54
Average network latency = 8017
Maximum network latency = 21603
Slowest packet = 32
Minimum flit latency = 45
Average flit latency = 8007.43
Maximum flit latency = 39980
Slowest flit = 7
Minimum fragmentation = 0
Average fragmentation = 5408.69
Maximum fragmentation = 20354
Minimum injected packet rate = 0 (at node 0)
Average injected packet rate = 7.8125e-06
Maximum injected packet rate = 0.000183333 (at node 26)
Minimum accepted packet rate = 0 (at node 0)
Average accepted packet rate = 5.98958e-06
Maximum accepted packet rate = 0.000166667 (at node 16)
Minimum injected flit rate = 0 (at node 0)
Average injected flit rate = 3.77604e-05
Maximum injected flit rate = 0.000916667 (at node 26)
Minimum accepted flit rate = 0 (at node 0)
Average accepted flit rate = 3.04687e-05
Maximum accepted flit rate = 0.0009 (at node 16)
Total number of injected packets = 30
Total number of injected flits = 145
Average injected packet length = 4.83333
Total number of accepted packets = 23
Total number of accepted flits = 117
Average accepted packet length = 5.08696
Total in-flight flits = 67 (64 measured)
===== Time: 100000 =====
Class 0:
Packets read from trace = 504 of 100000000 (0%)
Future packets = 1
Waiting packets = 0
Stalled packets = 432
Packets pending injection = 21
Packets in flight = 17
Minimum packet latency = 54
Average packet latency = 13746.9
Maximum packet latency = 55729
Minimum network latency = 54
Average network latency = 8017
Maximum network latency = 21603
Slowest packet = 32
Minimum flit latency = 45
Average flit latency = 8007.43
Maximum flit latency = 39980
Slowest flit = 7
Minimum fragmentation = 0
Average fragmentation = 5408.69
Maximum fragmentation = 20354
Minimum injected packet rate = 0 (at node 0)
Average injected packet rate = 6.69643e-06
Maximum injected packet rate = 0.000157143 (at node 26)
Minimum accepted packet rate = 0 (at node 0)
Average accepted packet rate = 5.13393e-06
Maximum accepted packet rate = 0.000142857 (at node 16)
Minimum injected flit rate = 0 (at node 0)
Average injected flit rate = 3.23661e-05
Maximum injected flit rate = 0.000785714 (at node 26)
Minimum accepted flit rate = 0 (at node 0)
Average accepted flit rate = 2.61161e-05
Maximum accepted flit rate = 0.000771429 (at node 16)
Total number of injected packets = 30
Total number of injected flits = 145
Average injected packet length = 4.83333
Total number of accepted packets = 23
Total number of accepted flits = 117
Average accepted packet length = 5.08696
Total in-flight flits = 67 (64 measured)
===== Time: 110000 =====
Class 0:
Packets read from trace = 595 of 100000000 (0%)
Future packets = 1
Waiting packets = 0
Stalled packets = 511
Packets pending injection = 28
Packets in flight = 17
Minimum packet latency = 54
Average packet latency = 12183.1
Maximum packet latency = 55729
Minimum network latency = 54
Average network latency = 6917
Maximum network latency = 21603
Slowest packet = 32
Minimum flit latency = 45
Average flit latency = 6723.8
Maximum flit latency = 39980
Slowest flit = 7
Minimum fragmentation = 0
Average fragmentation = 4917.48
Maximum fragmentation = 20354
Minimum injected packet rate = 0 (at node 0)
Average injected packet rate = 6.83594e-06
Maximum injected packet rate = 0.0002 (at node 26)
Minimum accepted packet rate = 0 (at node 0)
Average accepted packet rate = 5.46875e-06
Maximum accepted packet rate = 0.0001875 (at node 16)
Minimum injected flit rate = 0 (at node 0)
Average injected flit rate = 3.32031e-05
Maximum injected flit rate = 0.001 (at node 26)
Minimum accepted flit rate = 0 (at node 0)
Average accepted flit rate = 2.77344e-05
Maximum accepted flit rate = 0.0009875 (at node 16)
Total number of injected packets = 35
Total number of injected flits = 170
Average injected packet length = 4.85714
Total number of accepted packets = 28
Total number of accepted flits = 142
Average accepted packet length = 5.07143
Total in-flight flits = 67 (64 measured)
===== Time: 120000 =====
Class 0:
Packets read from trace = 624 of 100000000 (0%)
Future packets = 1
Waiting packets = 0
Stalled packets = 536
Packets pending injection = 32
Packets in flight = 17
Minimum packet latency = 54
Average packet latency = 12183.1
Maximum packet latency = 55729
Minimum network latency = 54
Average network latency = 6917
Maximum network latency = 21603
Slowest packet = 32
Minimum flit latency = 45
Average flit latency = 6723.8
Maximum flit latency = 39980
Slowest flit = 7
Minimum fragmentation = 0
Average fragmentation = 4917.48
Maximum fragmentation = 20354
Minimum injected packet rate = 0 (at node 0)
Average injected packet rate = 6.07639e-06
Maximum injected packet rate = 0.000177778 (at node 26)
Minimum accepted packet rate = 0 (at node 0)
Average accepted packet rate = 4.86111e-06
Maximum accepted packet rate = 0.000166667 (at node 16)
Minimum injected flit rate = 0 (at node 0)
Average injected flit rate = 2.95139e-05
Maximum injected flit rate = 0.000888889 (at node 26)
Minimum accepted flit rate = 0 (at node 0)
Average accepted flit rate = 2.46528e-05
Maximum accepted flit rate = 0.000877778 (at node 16)
Total number of injected packets = 35
Total number of injected flits = 170
Average injected packet length = 4.85714
Total number of accepted packets = 28
Total number of accepted flits = 142
Average accepted packet length = 5.07143
Total in-flight flits = 67 (64 measured)
===== Time: 130000 =====
Class 0:
Packets read from trace = 669 of 100000000 (0%)
Future packets = 1
Waiting packets = 0
Stalled packets = 577
Packets pending injection = 36
Packets in flight = 17
Minimum packet latency = 54
Average packet latency = 12183.1
Maximum packet latency = 55729
Minimum network latency = 54
Average network latency = 6917
Maximum network latency = 21603
Slowest packet = 32
Minimum flit latency = 45
Average flit latency = 6723.8
Maximum flit latency = 39980
Slowest flit = 7
Minimum fragmentation = 0
Average fragmentation = 4917.48
Maximum fragmentation = 20354
Minimum injected packet rate = 0 (at node 0)
Average injected packet rate = 5.46875e-06
Maximum injected packet rate = 0.00016 (at node 26)
Minimum accepted packet rate = 0 (at node 0)
Average accepted packet rate = 4.375e-06
Maximum accepted packet rate = 0.00015 (at node 16)
Minimum injected flit rate = 0 (at node 0)
Average injected flit rate = 2.65625e-05
Maximum injected flit rate = 0.0008 (at node 26)
Minimum accepted flit rate = 0 (at node 0)
Average accepted flit rate = 2.21875e-05
Maximum accepted flit rate = 0.00079 (at node 16)
Total number of injected packets = 35
Total number of injected flits = 170
Average injected packet length = 4.85714
Total number of accepted packets = 28
Total number of accepted flits = 142
Average accepted packet length = 5.07143
Total in-flight flits = 67 (64 measured)
Completed measurements after 130000 cycles.
Draining remaining packets ...
Class 0:
Remaining flits: 50 51 52 113 114 115 116 117 118 119 [...] (66 flits)
Measured flits: 113 114 115 116 117 118 119 120 121 122 [...] (63 flits)
Class 0:
Remaining flits: 50 51 52 113 114 115 116 117 118 119 [...] (65 flits)
Measured flits: 113 114 115 116 117 118 119 120 121 122 [...] (62 flits)
Class 0:
Remaining flits: 50 51 52 113 114 115 116 117 118 119 [...] (63 flits)
Measured flits: 113 114 115 116 117 118 119 120 121 122 [...] (60 flits)
Class 0:
Remaining flits: 50 51 52 113 114 115 116 117 118 119 [...] (58 flits)
Measured flits: 113 114 115 116 117 118 119 120 121 122 [...] (55 flits)
Class 0:
Remaining flits: 50 51 52 113 114 115 116 117 118 119 [...] (58 flits)
Measured flits: 113 114 115 116 117 118 119 120 121 122 [...] (55 flits)
Class 0:
Remaining flits: 50 51 52 113 114 115 116 117 118 119 [...] (58 flits)
Measured flits: 113 114 115 116 117 118 119 120 121 122 [...] (55 flits)
Class 0:
Remaining flits: 50 51 52 113 114 115 116 117 118 119 [...] (58 flits)
Measured flits: 113 114 115 116 117 118 119 120 121 122 [...] (55 flits)
Class 0:
Remaining flits: 50 51 52 113 114 115 116 117 118 119 [...] (58 flits)
Measured flits: 113 114 115 116 117 118 119 120 121 122 [...] (55 flits)
Class 0:
Remaining flits: 50 51 52 113 114 115 116 117 118 119 [...] (58 flits)
Measured flits: 113 114 115 116 117 118 119 120 121 122 [...] (55 flits)
Class 0:
Remaining flits: 50 51 52 113 114 115 116 117 118 119 [...] (57 flits)
Measured flits: 113 114 115 116 117 118 119 120 121 122 [...] (54 flits)
Class 0:
Remaining flits: 50 51 52 113 114 115 116 117 118 119 [...] (55 flits)
Measured flits: 113 114 115 116 117 118 119 120 121 122 [...] (52 flits)
Class 0:
Remaining flits: 50 51 52 113 114 115 116 117 118 119 [...] (55 flits)
Measured flits: 113 114 115 116 117 118 119 120 121 122 [...] (52 flits)
Class 0:
Remaining flits: 50 51 52 113 114 115 116 117 118 119 [...] (55 flits)
Measured flits: 113 114 115 116 117 118 119 120 121 122 [...] (52 flits)
Class 0:
Remaining flits: 50 51 52 113 114 115 116 117 118 119 [...] (55 flits)
Measured flits: 113 114 115 116 117 118 119 120 121 122 [...] (52 flits)
Class 0:
Remaining flits: 50 51 52 113 114 115 116 117 118 119 [...] (55 flits)
Measured flits: 113 114 115 116 117 118 119 120 121 122 [...] (52 flits)
Class 0:
Remaining flits: 50 51 52 113 114 115 116 117 118 119 [...] (55 flits)
Measured flits: 113 114 115 116 117 118 119 120 121 122 [...] (52 flits)
Class 0:
Remaining flits: 50 51 52 113 114 115 116 117 118 119 [...] (55 flits)
Measured flits: 113 114 115 116 117 118 119 120 121 122 [...] (52 flits)
Class 0:
Remaining flits: 50 51 52 113 114 115 116 117 118 119 [...] (55 flits)
Measured flits: 113 114 115 116 117 118 119 120 121 122 [...] (52 flits)
Class 0:
Remaining flits: 50 51 52 113 114 115 116 117 118 119 [...] (55 flits)
Measured flits: 113 114 115 116 117 118 119 120 121 122 [...] (52 flits)
Class 0:
Remaining flits: 50 51 52 113 114 115 116 117 118 119 [...] (55 flits)
Measured flits: 113 114 115 116 117 118 119 120 121 122 [...] (52 flits)
Class 0:
Remaining flits: 50 51 52 113 114 115 116 117 118 119 [...] (55 flits)
Measured flits: 113 114 115 116 117 118 119 120 121 122 [...] (52 flits)
Class 0:
Remaining flits: 50 51 52 113 114 115 116 117 118 119 [...] (55 flits)
Measured flits: 113 114 115 116 117 118 119 120 121 122 [...] (52 flits)
Class 0:
Remaining flits: 50 51 52 113 114 115 116 117 118 119 [...] (55 flits)
Measured flits: 113 114 115 116 117 118 119 120 121 122 [...] (52 flits)
Class 0:
Remaining flits: 50 51 52 113 114 115 116 117 118 119 [...] (55 flits)
Measured flits: 113 114 115 116 117 118 119 120 121 122 [...] (52 flits)
Class 0:
Remaining flits: 50 51 52 113 114 115 116 117 118 119 [...] (55 flits)
Measured flits: 113 114 115 116 117 118 119 120 121 122 [...] (52 flits)
Class 0:
Remaining flits: 50 51 52 113 114 115 116 117 118 119 [...] (55 flits)
Measured flits: 113 114 115 116 117 118 119 120 121 122 [...] (52 flits)
Class 0:
Remaining flits: 50 51 52 113 114 115 116 117 118 119 [...] (55 flits)
Measured flits: 113 114 115 116 117 118 119 120 121 122 [...] (52 flits)
Class 0:
Remaining flits: 50 51 52 113 114 115 116 117 118 119 [...] (55 flits)
Measured flits: 113 114 115 116 117 118 119 120 121 122 [...] (52 flits)
Class 0:
Remaining flits: 50 51 52 113 114 115 116 117 118 119 [...] (55 flits)
Measured flits: 113 114 115 116 117 118 119 120 121 122 [...] (52 flits)
Class 0:
Remaining flits: 50 51 52 113 114 115 116 117 118 119 [...] (55 flits)
Measured flits: 113 114 115 116 117 118 119 120 121 122 [...] (52 flits)
Class 0:
Remaining flits: 50 51 52 113 114 115 116 117 118 119 [...] (55 flits)
Measured flits: 113 114 115 116 117 118 119 120 121 122 [...] (52 flits)
Class 0:
Remaining flits: 50 51 52 113 114 115 116 117 118 119 [...] (55 flits)
Measured flits: 113 114 115 116 117 118 119 120 121 122 [...] (52 flits)
Class 0:
Remaining flits: 50 51 52 113 114 115 116 117 118 119 [...] (55 flits)
Measured flits: 113 114 115 116 117 118 119 120 121 122 [...] (52 flits)
Class 0:
Remaining flits: 50 51 52 113 114 115 116 117 118 119 [...] (55 flits)
Measured flits: 113 114 115 116 117 118 119 120 121 122 [...] (52 flits)
Class 0:
Remaining flits: 50 51 52 113 114 115 116 117 118 119 [...] (55 flits)
Measured flits: 113 114 115 116 117 118 119 120 121 122 [...] (52 flits)
Class 0:
Remaining flits: 50 51 52 113 114 115 116 117 118 119 [...] (55 flits)
Measured flits: 113 114 115 116 117 118 119 120 121 122 [...] (52 flits)
Class 0:
Remaining flits: 50 51 52 113 114 115 116 117 118 119 [...] (55 flits)
Measured flits: 113 114 115 116 117 118 119 120 121 122 [...] (52 flits)
Class 0:
Remaining flits: 50 51 52 113 114 115 116 117 118 119 [...] (55 flits)
Measured flits: 113 114 115 116 117 118 119 120 121 122 [...] (52 flits)
Class 0:
Remaining flits: 50 51 52 113 114 115 116 117 118 119 [...] (55 flits)
Measured flits: 113 114 115 116 117 118 119 120 121 122 [...] (52 flits)
Class 0:
Remaining flits: 50 51 52 113 114 115 116 117 118 119 [...] (55 flits)
Measured flits: 113 114 115 116 117 118 119 120 121 122 [...] (52 flits)
Class 0:
Remaining flits: 50 51 52 113 114 115 116 117 118 119 [...] (55 flits)
Measured flits: 113 114 115 116 117 118 119 120 121 122 [...] (52 flits)
Class 0:
Remaining flits: 50 51 52 113 114 115 116 117 118 119 [...] (55 flits)
Measured flits: 113 114 115 116 117 118 119 120 121 122 [...] (52 flits)
Class 0:
Remaining flits: 50 51 52 113 114 115 116 117 118 119 [...] (55 flits)
Measured flits: 113 114 115 116 117 118 119 120 121 122 [...] (52 flits)
Class 0:
Remaining flits: 50 51 52 113 114 115 116 117 118 119 [...] (55 flits)
Measured flits: 113 114 115 116 117 118 119 120 121 122 [...] (52 flits)
Class 0:
Remaining flits: 50 51 52 113 114 115 116 117 118 119 [...] (55 flits)
Measured flits: 113 114 115 116 117 118 119 120 121 122 [...] (52 flits)
Class 0:
Remaining flits: 50 51 52 113 114 115 116 117 118 119 [...] (55 flits)
Measured flits: 113 114 115 116 117 118 119 120 121 122 [...] (52 flits)
Class 0:
Remaining flits: 50 51 52 113 114 115 116 117 118 119 [...] (55 flits)
Measured flits: 113 114 115 116 117 118 119 120 121 122 [...] (52 flits)
Class 0:
Remaining flits: 50 51 52 113 114 115 116 117 118 119 [...] (55 flits)
Measured flits: 113 114 115 116 117 118 119 120 121 122 [...] (52 flits)
Class 0:
Remaining flits: 50 51 52 113 114 115 116 117 118 119 [...] (55 flits)
Measured flits: 113 114 115 116 117 118 119 120 121 122 [...] (52 flits)
Class 0:
Remaining flits: 50 51 52 113 114 115 116 117 118 119 [...] (55 flits)
Measured flits: 113 114 115 116 117 118 119 120 121 122 [...] (52 flits)
Class 0:
Remaining flits: 50 51 52 113 114 115 116 117 118 119 [...] (55 flits)
Measured flits: 113 114 115 116 117 118 119 120 121 122 [...] (52 flits)
Class 0:
Remaining flits: 50 51 52 113 114 115 116 117 118 119 [...] (55 flits)
Measured flits: 113 114 115 116 117 118 119 120 121 122 [...] (52 flits)
Class 0:
Remaining flits: 50 51 52 113 114 115 116 117 118 119 [...] (55 flits)
Measured flits: 113 114 115 116 117 118 119 120 121 122 [...] (52 flits)
Class 0:
Remaining flits: 50 51 52 113 114 115 116 117 118 119 [...] (55 flits)
Measured flits: 113 114 115 116 117 118 119 120 121 122 [...] (52 flits)
Class 0:
Remaining flits: 50 51 52 113 114 115 116 117 118 119 [...] (55 flits)
Measured flits: 113 114 115 116 117 118 119 120 121 122 [...] (52 flits)
Class 0:
Remaining flits: 50 51 52 113 114 115 116 117 118 119 [...] (55 flits)
Measured flits: 113 114 115 116 117 118 119 120 121 122 [...] (52 flits)
Class 0:
Remaining flits: 50 51 52 113 114 115 116 117 118 119 [...] (55 flits)
Measured flits: 113 114 115 116 117 118 119 120 121 122 [...] (52 flits)
Class 0:
Remaining flits: 50 51 52 113 114 115 116 117 118 119 [...] (55 flits)
Measured flits: 113 114 115 116 117 118 119 120 121 122 [...] (52 flits)
Class 0:
Remaining flits: 50 51 52 113 114 115 116 117 118 119 [...] (55 flits)
Measured flits: 113 114 115 116 117 118 119 120 121 122 [...] (52 flits)
Class 0:
Remaining flits: 50 51 52 113 114 115 116 117 118 119 [...] (55 flits)
Measured flits: 113 114 115 116 117 118 119 120 121 122 [...] (52 flits)
Class 0:
Remaining flits: 50 51 52 113 114 115 116 117 118 119 [...] (55 flits)
Measured flits: 113 114 115 116 117 118 119 120 121 122 [...] (52 flits)
Class 0:
Remaining flits: 50 51 52 113 114 115 116 117 118 119 [...] (55 flits)
Measured flits: 113 114 115 116 117 118 119 120 121 122 [...] (52 flits)
Class 0:
Remaining flits: 50 51 52 113 114 115 116 117 118 119 [...] (55 flits)
Measured flits: 113 114 115 116 117 118 119 120 121 122 [...] (52 flits)
Class 0:
Remaining flits: 50 51 52 113 114 115 116 117 118 119 [...] (55 flits)
Measured flits: 113 114 115 116 117 118 119 120 121 122 [...] (52 flits)
Class 0:
Remaining flits: 50 51 52 113 114 115 116 117 118 119 [...] (55 flits)
Measured flits: 113 114 115 116 117 118 119 120 121 122 [...] (52 flits)
Class 0:
Remaining flits: 50 51 52 113 114 115 116 117 118 119 [...] (55 flits)
Measured flits: 113 114 115 116 117 118 119 120 121 122 [...] (52 flits)
Class 0:
Remaining flits: 50 51 52 113 114 115 116 117 118 119 [...] (55 flits)
Measured flits: 113 114 115 116 117 118 119 120 121 122 [...] (52 flits)
Class 0:
Remaining flits: 50 51 52 113 114 115 116 117 118 119 [...] (55 flits)
Measured flits: 113 114 115 116 117 118 119 120 121 122 [...] (52 flits)
Class 0:
Remaining flits: 50 51 52 113 114 115 116 117 118 119 [...] (55 flits)
Measured flits: 113 114 115 116 117 118 119 120 121 122 [...] (52 flits)
Class 0:
Remaining flits: 50 51 52 113 114 115 116 117 118 119 [...] (55 flits)
Measured flits: 113 114 115 116 117 118 119 120 121 122 [...] (52 flits)
Class 0:
Remaining flits: 50 51 52 113 114 115 116 117 118 119 [...] (55 flits)
Measured flits: 113 114 115 116 117 118 119 120 121 122 [...] (52 flits)
Class 0:
Remaining flits: 50 51 52 113 114 115 116 117 118 119 [...] (55 flits)
Measured flits: 113 114 115 116 117 118 119 120 121 122 [...] (52 flits)
Class 0:
Remaining flits: 50 51 52 113 114 115 116 117 118 119 [...] (55 flits)
Measured flits: 113 114 115 116 117 118 119 120 121 122 [...] (52 flits)
Class 0:
Remaining flits: 50 51 52 113 114 115 116 117 118 119 [...] (55 flits)
Measured flits: 113 114 115 116 117 118 119 120 121 122 [...] (52 flits)
Class 0:
Remaining flits: 50 51 52 113 114 115 116 117 118 119 [...] (55 flits)
Measured flits: 113 114 115 116 117 118 119 120 121 122 [...] (52 flits)
Class 0:
Remaining flits: 50 51 52 113 114 115 116 117 118 119 [...] (55 flits)
Measured flits: 113 114 115 116 117 118 119 120 121 122 [...] (52 flits)
Class 0:
Remaining flits: 50 51 52 113 114 115 116 117 118 119 [...] (55 flits)
Measured flits: 113 114 115 116 117 118 119 120 121 122 [...] (52 flits)
Class 0:
Remaining flits: 50 51 52 113 114 115 116 117 118 119 [...] (55 flits)
Measured flits: 113 114 115 116 117 118 119 120 121 122 [...] (52 flits)
Class 0:
Remaining flits: 50 51 52 113 114 115 116 117 118 119 [...] (55 flits)
Measured flits: 113 114 115 116 117 118 119 120 121 122 [...] (52 flits)
Class 0:
Remaining flits: 50 51 52 113 114 115 116 117 118 119 [...] (55 flits)
Measured flits: 113 114 115 116 117 118 119 120 121 122 [...] (52 flits)
Class 0:
Remaining flits: 50 51 52 113 114 115 116 117 118 119 [...] (55 flits)
Measured flits: 113 114 115 116 117 118 119 120 121 122 [...] (52 flits)
Class 0:
Remaining flits: 50 51 52 113 114 115 116 117 118 119 [...] (55 flits)
Measured flits: 113 114 115 116 117 118 119 120 121 122 [...] (52 flits)
Class 0:
Remaining flits: 50 51 52 113 114 115 116 117 118 119 [...] (55 flits)
Measured flits: 113 114 115 116 117 118 119 120 121 122 [...] (52 flits)
Class 0:
Remaining flits: 50 51 52 113 114 115 116 117 118 119 [...] (55 flits)
Measured flits: 113 114 115 116 117 118 119 120 121 122 [...] (52 flits)
Class 0:
Remaining flits: 50 51 52 113 114 115 116 117 118 119 [...] (55 flits)
Measured flits: 113 114 115 116 117 118 119 120 121 122 [...] (52 flits)
Class 0:
Remaining flits: 50 51 52 113 114 115 116 117 118 119 [...] (55 flits)
Measured flits: 113 114 115 116 117 118 119 120 121 122 [...] (52 flits)
Class 0:
Remaining flits: 50 51 52 113 114 115 116 117 118 119 [...] (55 flits)
Measured flits: 113 114 115 116 117 118 119 120 121 122 [...] (52 flits)
Class 0:
Remaining flits: 50 51 52 113 114 115 116 117 118 119 [...] (55 flits)
Measured flits: 113 114 115 116 117 118 119 120 121 122 [...] (52 flits)
Class 0:
Remaining flits: 50 51 52 113 114 115 116 117 118 119 [...] (55 flits)
Measured flits: 113 114 115 116 117 118 119 120 121 122 [...] (52 flits)
Class 0:
Remaining flits: 50 51 52 113 114 115 116 117 118 119 [...] (55 flits)
Measured flits: 113 114 115 116 117 118 119 120 121 122 [...] (52 flits)
Class 0:
Remaining flits: 50 51 52 113 114 115 116 117 118 119 [...] (55 flits)
Measured flits: 113 114 115 116 117 118 119 120 121 122 [...] (52 flits)
Class 0:
Remaining flits: 50 51 52 113 114 115 116 117 118 119 [...] (55 flits)
Measured flits: 113 114 115 116 117 118 119 120 121 122 [...] (52 flits)
Class 0:
Remaining flits: 50 51 52 113 114 115 116 117 118 119 [...] (55 flits)
Measured flits: 113 114 115 116 117 118 119 120 121 122 [...] (52 flits)
Class 0:
Remaining flits: 50 51 52 113 114 115 116 117 118 119 [...] (55 flits)
Measured flits: 113 114 115 116 117 118 119 120 121 122 [...] (52 flits)
Class 0:
Remaining flits: 50 51 52 113 114 115 116 117 118 119 [...] (55 flits)
Measured flits: 113 114 115 116 117 118 119 120 121 122 [...] (52 flits)
Class 0:
Remaining flits: 50 51 52 113 114 115 116 117 118 119 [...] (55 flits)
Measured flits: 113 114 115 116 117 118 119 120 121 122 [...] (52 flits)
Class 0:
Remaining flits: 50 51 52 113 114 115 116 117 118 119 [...] (55 flits)
Measured flits: 113 114 115 116 117 118 119 120 121 122 [...] (52 flits)
Class 0:
Remaining flits: 50 51 52 113 114 115 116 117 118 119 [...] (55 flits)
Measured flits: 113 114 115 116 117 118 119 120 121 122 [...] (52 flits)
Class 0:
Remaining flits: 50 51 52 113 114 115 116 117 118 119 [...] (55 flits)
Measured flits: 113 114 115 116 117 118 119 120 121 122 [...] (52 flits)
Class 0:
Remaining flits: 50 51 52 113 114 115 116 117 118 119 [...] (55 flits)
Measured flits: 113 114 115 116 117 118 119 120 121 122 [...] (52 flits)
Class 0:
Remaining flits: 50 51 52 113 114 115 116 117 118 119 [...] (55 flits)
Measured flits: 113 114 115 116 117 118 119 120 121 122 [...] (52 flits)
Time taken is 131000 cycles
====== Traffic class 0 ======

Total number of flits generated = 259, changed lanes = 0
Overall minimum packet latency = 54 (1 samples)
Overall average packet latency = 23361.9 (1 samples)
Overall maximum packet latency = 98469 (1 samples)
Overall minimum network latency = 54 (1 samples)
Overall average network latency = 15593.3 (1 samples)
Overall maximum network latency = 85476 (1 samples)
Overall minimum flit latency = 45 (1 samples)
Overall average flit latency = 9721.66 (1 samples)
Overall maximum flit latency = 85467 (1 samples)
Overall minimum fragmentation = 0 (1 samples)
Overall average fragmentation = 11576.3 (1 samples)
Overall maximum fragmentation = 85401 (1 samples)
Overall minimum injected packet rate = 0 (1 samples)
Overall average injected packet rate = 5.46875e-06 (1 samples)
Overall maximum injected packet rate = 0.00016 (1 samples)
Overall minimum accepted packet rate = 0 (1 samples)
Overall average accepted packet rate = 4.375e-06 (1 samples)
Overall maximum accepted packet rate = 0.00015 (1 samples)
Overall minimum injected flit rate = 0 (1 samples)
Overall average injected flit rate = 2.65625e-05 (1 samples)
Overall maximum injected flit rate = 0.0008 (1 samples)
Overall minimum accepted flit rate = 0 (1 samples)
Overall average accepted flit rate = 2.21875e-05 (1 samples)
Overall maximum accepted flit rate = 0.00079 (1 samples)
Overall average injected packet size = 4.85714 (1 samples)
Overall average accepted packet size = 5.07143 (1 samples)
Overall average hops = 5.03846 (1 samples)
Overall throughput of the network (flits/cycle) = 0.00204
Overall throughput of the network (packets/cycle) = 0.00043
Overall workload runtime = 100000 (1 samples)

The distribution of the source packets of size 1 is: 

Source [0] = 0
Source [1] = 0
Source [2] = 2
Source [3] = 0
Source [4] = 0
Source [5] = 0
Source [6] = 0
Source [7] = 0
Source [8] = 0
Source [9] = 0
Source [10] = 0
Source [11] = 0
Source [12] = 0
Source [13] = 0
Source [14] = 0
Source [15] = 0
Source [16] = 0
Source [17] = 0
Source [18] = 0
Source [19] = 0
Source [20] = 1
Source [21] = 0
Source [22] = 0
Source [23] = 0
Source [24] = 0
Source [25] = 0
Source [26] = 0
Source [27] = 0
Source [28] = 0
Source [29] = 0
Source [30] = 0
Source [31] = 0
Source [32] = 0
Source [33] = 0
Source [34] = 0
Source [35] = 0
Source [36] = 0
Source [37] = 0
Source [38] = 0
Source [39] = 0
Source [40] = 1
Source [41] = 0
Source [42] = 0
Source [43] = 0
Source [44] = 0
Source [45] = 0
Source [46] = 0
Source [47] = 0
Source [48] = 0
Source [49] = 0
Source [50] = 0
Source [51] = 0
Source [52] = 0
Source [53] = 0
Source [54] = 0
Source [55] = 0
Source [56] = 0
Source [57] = 0
Source [58] = 0
Source [59] = 0
Source [60] = 0
Source [61] = 0
Source [62] = 0
Source [63] = 0
The distribution of the source packets of size 5 is: 

Source [0] = 0
Source [1] = 0
Source [2] = 1
Source [3] = 0
Source [4] = 0
Source [5] = 0
Source [6] = 0
Source [7] = 0
Source [8] = 0
Source [9] = 0
Source [10] = 0
Source [11] = 0
Source [12] = 0
Source [13] = 0
Source [14] = 8
Source [15] = 0
Source [16] = 0
Source [17] = 0
Source [18] = 0
Source [19] = 0
Source [20] = 2
Source [21] = 0
Source [22] = 2
Source [23] = 5
Source [24] = 10
Source [25] = 5
Source [26] = 17
Source [27] = 0
Source [28] = 1
Source [29] = 0
Source [30] = 0
Source [31] = 0
Source [32] = 0
Source [33] = 0
Source [34] = 0
Source [35] = 0
Source [36] = 0
Source [37] = 0
Source [38] = 0
Source [39] = 0
Source [40] = 0
Source [41] = 0
Source [42] = 0
Source [43] = 0
Source [44] = 0
Source [45] = 0
Source [46] = 0
Source [47] = 0
Source [48] = 0
Source [49] = 0
Source [50] = 0
Source [51] = 0
Source [52] = 0
Source [53] = 0
Source [54] = 0
Source [55] = 0
Source [56] = 0
Source [57] = 0
Source [58] = 0
Source [59] = 0
Source [60] = 0
Source [61] = 0
Source [62] = 0
Source [63] = 0
The distribution of the dest packets of size 1 is: 

dest [0] = 0
dest [1] = 0
dest [2] = 0
dest [3] = 0
dest [4] = 0
dest [5] = 0
dest [6] = 0
dest [7] = 0
dest [8] = 0
dest [9] = 0
dest [10] = 0
dest [11] = 0
dest [12] = 0
dest [13] = 0
dest [14] = 0
dest [15] = 0
dest [16] = 0
dest [17] = 0
dest [18] = 0
dest [19] = 0
dest [20] = 3
dest [21] = 0
dest [22] = 0
dest [23] = 0
dest [24] = 0
dest [25] = 0
dest [26] = 0
dest [27] = 0
dest [28] = 0
dest [29] = 0
dest [30] = 0
dest [31] = 0
dest [32] = 0
dest [33] = 0
dest [34] = 0
dest [35] = 0
dest [36] = 0
dest [37] = 0
dest [38] = 0
dest [39] = 0
dest [40] = 1
dest [41] = 0
dest [42] = 0
dest [43] = 0
dest [44] = 0
dest [45] = 0
dest [46] = 0
dest [47] = 0
dest [48] = 0
dest [49] = 0
dest [50] = 0
dest [51] = 0
dest [52] = 0
dest [53] = 0
dest [54] = 0
dest [55] = 0
dest [56] = 0
dest [57] = 0
dest [58] = 0
dest [59] = 0
dest [60] = 0
dest [61] = 0
dest [62] = 0
dest [63] = 0
The distribution of the dest packets of size 5 is: 

dest [0] = 0
dest [1] = 0
dest [2] = 12
dest [3] = 0
dest [4] = 0
dest [5] = 5
dest [6] = 0
dest [7] = 0
dest [8] = 0
dest [9] = 0
dest [10] = 0
dest [11] = 0
dest [12] = 0
dest [13] = 0
dest [14] = 0
dest [15] = 0
dest [16] = 17
dest [17] = 0
dest [18] = 0
dest [19] = 0
dest [20] = 0
dest [21] = 0
dest [22] = 0
dest [23] = 0
dest [24] = 1
dest [25] = 0
dest [26] = 0
dest [27] = 0
dest [28] = 0
dest [29] = 0
dest [30] = 0
dest [31] = 0
dest [32] = 0
dest [33] = 0
dest [34] = 0
dest [35] = 0
dest [36] = 0
dest [37] = 0
dest [38] = 0
dest [39] = 0
dest [40] = 1
dest [41] = 0
dest [42] = 0
dest [43] = 0
dest [44] = 0
dest [45] = 0
dest [46] = 0
dest [47] = 0
dest [48] = 0
dest [49] = 0
dest [50] = 0
dest [51] = 0
dest [52] = 0
dest [53] = 0
dest [54] = 0
dest [55] = 0
dest [56] = 0
dest [57] = 0
dest [58] = 10
dest [59] = 0
dest [60] = 0
dest [61] = 5
dest [62] = 0
dest [63] = 0Total run time 534.802
