BEGIN Configuration File: ./examples/mesh88_injection
// Topology

topology = mesh;//mesh;
k = 3;
n = 2;

// Routing
routing_function = dor;	//valiant

// Flow control
num_vcs     = 4;
vc_buf_size = 4;
wait_for_tail_credit = 1;

// Router architecture
vc_allocator = islip;
sw_allocator = islip;
alloc_iters  = 1;

credit_delay   = 2;
routing_delay  = 1;
vc_alloc_delay = 1;
sw_alloc_delay = 1;

input_speedup     = 1;
output_speedup    = 1;
internal_speedup  = 1.0;

vc_busy_when_full = 0;

// Traffic
traffic = tornado;
packet_size = 5;

// Simulation
sim_type = throughput;
max_samples = 1000000;

injection_rate=0.5;

END Configuration File: ./examples/mesh88_injection
source_router,source_port,dest_router,dest_port

0,0,1,1	
0,1,2,0	
0,2,3,3	
0,3,6,2	
1,0,2,1	
1,1,0,0	
1,2,4,3	
1,3,7,2	
2,0,0,1	
2,1,1,0	
2,2,5,3	
2,3,8,2	
3,0,4,1	
3,1,5,0	
3,2,6,3	
3,3,0,2	
4,0,5,1	
4,1,3,0	
4,2,7,3	
4,3,1,2	
5,0,3,1	
5,1,4,0	
5,2,8,3	
5,3,2,2	
6,0,7,1	
6,1,8,0	
6,2,0,3	
6,3,3,2	
7,0,8,1	
7,1,6,0	
7,2,1,3	
7,3,4,2	
8,0,6,1	
8,1,7,0	
8,2,2,3	
8,3,5,2	
Time:,0,4,[0][0],GenFlit,-1

Time:,0,4,[1][0],GenFlit,-1

Time:,0,4,[2][0],GenFlit,-1

Time:,0,4,[3][0],GenFlit,-1

Time:,0,4,[4][0],GenFlit,-1

Time:,0,5,[5][1],GenFlit,-1

Time:,0,5,[6][1],GenFlit,-1

Time:,0,5,[7][1],GenFlit,-1

Time:,0,5,[8][1],GenFlit,-1

Time:,0,5,[9][1],GenFlit,-1

Time:,0,8,[10][2],GenFlit,-1

Time:,0,8,[11][2],GenFlit,-1

Time:,0,8,[12][2],GenFlit,-1

Time:,0,8,[13][2],GenFlit,-1

Time:,0,8,[14][2],GenFlit,-1

Time:,1,0,[15][3],GenFlit,-1

Time:,1,0,[16][3],GenFlit,-1

Time:,1,0,[17][3],GenFlit,-1

Time:,1,0,[18][3],GenFlit,-1

Time:,1,0,[19][3],GenFlit,-1

Time:,1,2,[20][4],GenFlit,-1

Time:,1,2,[21][4],GenFlit,-1

Time:,1,2,[22][4],GenFlit,-1

Time:,1,2,[23][4],GenFlit,-1

Time:,1,2,[24][4],GenFlit,-1

Time:,1,3,[25][5],GenFlit,-1

Time:,1,3,[26][5],GenFlit,-1

Time:,1,3,[27][5],GenFlit,-1

Time:,1,3,[28][5],GenFlit,-1

Time:,1,3,[29][5],GenFlit,-1

Time:,1,6,[30][6],GenFlit,-1

Time:,1,6,[31][6],GenFlit,-1

Time:,1,6,[32][6],GenFlit,-1

Time:,1,6,[33][6],GenFlit,-1

Time:,1,6,[34][6],GenFlit,-1

Time:,1,7,[35][7],GenFlit,-1

Time:,1,7,[36][7],GenFlit,-1

Time:,1,7,[37][7],GenFlit,-1

Time:,1,7,[38][7],GenFlit,-1

Time:,1,7,[39][7],GenFlit,-1

Time:,2,4,[0][0],ReceiveFlit,0

Time:,2,5,[5][1],ReceiveFlit,0

Time:,2,8,[10][2],ReceiveFlit,0

Time:,2,1,[40][8],GenFlit,-1

Time:,2,1,[41][8],GenFlit,-1

Time:,2,1,[42][8],GenFlit,-1

Time:,2,1,[43][8],GenFlit,-1

Time:,2,1,[44][8],GenFlit,-1

Time:,2,4,[0][0],InputQueueing,0

Time:,2,5,[5][1],InputQueueing,0

Time:,2,8,[10][2],InputQueueing,0

Time:,3,0,[15][3],ReceiveFlit,0

Time:,3,2,[20][4],ReceiveFlit,0

Time:,3,3,[25][5],ReceiveFlit,0

Time:,3,4,[1][0],ReceiveFlit,0

Time:,3,5,[6][1],ReceiveFlit,0

Time:,3,6,[30][6],ReceiveFlit,0

Time:,3,7,[35][7],ReceiveFlit,0

Time:,3,8,[11][2],ReceiveFlit,0

Time:,3,0,[15][3],InputQueueing,0

Time:,3,2,[20][4],InputQueueing,0

Time:,3,3,[25][5],InputQueueing,0

Time:,3,4,[1][0],InputQueueing,0

Time:,3,4,[0][0],VCUpdate,0

Time:,3,5,[6][1],InputQueueing,0

Time:,3,5,[5][1],VCUpdate,0

Time:,3,6,[30][6],InputQueueing,0

Time:,3,7,[35][7],InputQueueing,0

Time:,3,8,[11][2],InputQueueing,0

Time:,3,8,[10][2],VCUpdate,0

Time:,4,0,[16][3],ReceiveFlit,0

Time:,4,1,[40][8],ReceiveFlit,0

Time:,4,2,[21][4],ReceiveFlit,0

Time:,4,3,[26][5],ReceiveFlit,0

Time:,4,4,[2][0],ReceiveFlit,0

Time:,4,5,[7][1],ReceiveFlit,0

Time:,4,6,[31][6],ReceiveFlit,0

Time:,4,7,[36][7],ReceiveFlit,0

Time:,4,8,[12][2],ReceiveFlit,0

Time:,4,0,[16][3],InputQueueing,0

Time:,4,0,[15][3],VCUpdate,0

Time:,4,1,[40][8],InputQueueing,0

Time:,4,2,[21][4],InputQueueing,0

Time:,4,2,[20][4],VCUpdate,0

Time:,4,3,[26][5],InputQueueing,0

Time:,4,3,[25][5],VCUpdate,0

Time:,4,4,[2][0],InputQueueing,0

Time:,4,4,[0][0],SWUpdate,0

Time:,4,5,[7][1],InputQueueing,0

Time:,4,5,[5][1],SWUpdate,0

Time:,4,6,[31][6],InputQueueing,0

Time:,4,6,[30][6],VCUpdate,0

Time:,4,7,[36][7],InputQueueing,0

Time:,4,7,[35][7],VCUpdate,0

Time:,4,8,[12][2],InputQueueing,0

Time:,4,8,[10][2],SWUpdate,0

Time:,4,4,[0][0],SendingFlit,0

Time:,4,5,[5][1],SendingFlit,0

Time:,4,8,[10][2],SendingFlit,0

Time:,5,0,[17][3],ReceiveFlit,0

Time:,5,1,[41][8],ReceiveFlit,0

Time:,5,2,[22][4],ReceiveFlit,0

Time:,5,3,[27][5],ReceiveFlit,0

Time:,5,4,[3][0],ReceiveFlit,0

Time:,5,5,[8][1],ReceiveFlit,0

Time:,5,6,[32][6],ReceiveFlit,0

Time:,5,7,[37][7],ReceiveFlit,0

Time:,5,8,[13][2],ReceiveFlit,0

Time:,5,0,[17][3],InputQueueing,0

Time:,5,0,[15][3],SWUpdate,0

Time:,5,1,[41][8],InputQueueing,0

Time:,5,1,[40][8],VCUpdate,0

Time:,5,2,[22][4],InputQueueing,0

Time:,5,2,[20][4],SWUpdate,0

Time:,5,3,[27][5],InputQueueing,0

Time:,5,3,[25][5],SWUpdate,0

Time:,5,4,[3][0],InputQueueing,0

Time:,5,4,[1][0],SWUpdate,0

Time:,5,5,[8][1],InputQueueing,0

Time:,5,5,[6][1],SWUpdate,0

Time:,5,6,[32][6],InputQueueing,0

Time:,5,6,[30][6],SWUpdate,0

Time:,5,7,[37][7],InputQueueing,0

Time:,5,7,[35][7],SWUpdate,0

Time:,5,8,[13][2],InputQueueing,0

Time:,5,8,[11][2],SWUpdate,0

Time:,5,0,[15][3],SendingFlit,0

Time:,5,2,[20][4],SendingFlit,0

Time:,5,3,[25][5],SendingFlit,0

Time:,5,4,[1][0],SendingFlit,0

Time:,5,5,[6][1],SendingFlit,0

Time:,5,6,[30][6],SendingFlit,0

Time:,5,7,[35][7],SendingFlit,0

Time:,5,8,[11][2],SendingFlit,0

Time:,6,0,[18][3],ReceiveFlit,0

Time:,6,1,[42][8],ReceiveFlit,0

Time:,6,2,[23][4],ReceiveFlit,0

Time:,6,3,[28][5],ReceiveFlit,0

Time:,6,4,[5][1],ReceiveFlit,0

Time:,6,5,[0][0],ReceiveFlit,0

Time:,6,6,[33][6],ReceiveFlit,0

Time:,6,7,[10][2],ReceiveFlit,0

Time:,6,7,[38][7],ReceiveFlit,0

Time:,6,0,[18][3],InputQueueing,0

Time:,6,0,[16][3],SWUpdate,0

Time:,6,1,[42][8],InputQueueing,0

Time:,6,1,[40][8],SWUpdate,0

Time:,6,2,[23][4],InputQueueing,0

Time:,6,2,[21][4],SWUpdate,0

Time:,6,3,[28][5],InputQueueing,0

Time:,6,3,[26][5],SWUpdate,0

Time:,6,4,[5][1],InputQueueing,0

Time:,6,4,[2][0],SWUpdate,0

Time:,6,5,[0][0],InputQueueing,0

Time:,6,5,[7][1],SWUpdate,0

Time:,6,6,[33][6],InputQueueing,0

Time:,6,6,[31][6],SWUpdate,0

Time:,6,7,[10][2],InputQueueing,0

Time:,6,7,[38][7],InputQueueing,0

Time:,6,7,[36][7],SWUpdate,0

Time:,6,8,[12][2],SWUpdate,0

Time:,6,0,[16][3],SendingFlit,0

Time:,6,1,[40][8],SendingFlit,0

Time:,6,2,[21][4],SendingFlit,0

Time:,6,3,[26][5],SendingFlit,0

Time:,6,4,[2][0],SendingFlit,0

Time:,6,5,[7][1],SendingFlit,0

Time:,6,6,[31][6],SendingFlit,0

Time:,6,7,[36][7],SendingFlit,0

Time:,6,8,[12][2],SendingFlit,0

Time:,7,1,[20][4],ReceiveFlit,0

Time:,7,1,[15][3],ReceiveFlit,0

Time:,7,1,[43][8],ReceiveFlit,0

Time:,7,4,[6][1],ReceiveFlit,0

Time:,7,4,[25][5],ReceiveFlit,0

Time:,7,5,[1][0],ReceiveFlit,0

Time:,7,7,[11][2],ReceiveFlit,0

Time:,7,7,[30][6],ReceiveFlit,0

Time:,7,8,[35][7],ReceiveFlit,0

Time:,7,4,[45][9],GenFlit,-1

Time:,7,4,[46][9],GenFlit,-1

Time:,7,4,[47][9],GenFlit,-1

Time:,7,4,[48][9],GenFlit,-1

Time:,7,4,[49][9],GenFlit,-1

Time:,7,5,[50][10],GenFlit,-1

Time:,7,5,[51][10],GenFlit,-1

Time:,7,5,[52][10],GenFlit,-1

Time:,7,5,[53][10],GenFlit,-1

Time:,7,5,[54][10],GenFlit,-1

Time:,7,8,[55][11],GenFlit,-1

Time:,7,8,[56][11],GenFlit,-1

Time:,7,8,[57][11],GenFlit,-1

Time:,7,8,[58][11],GenFlit,-1

Time:,7,8,[59][11],GenFlit,-1

Time:,7,0,[17][3],SWUpdate,0

Time:,7,1,[20][4],InputQueueing,0

Time:,7,1,[15][3],InputQueueing,0

Time:,7,1,[43][8],InputQueueing,0

Time:,7,1,[41][8],SWUpdate,0

Time:,7,2,[22][4],SWUpdate,0

Time:,7,3,[27][5],SWUpdate,0

Time:,7,4,[6][1],InputQueueing,0

Time:,7,4,[25][5],InputQueueing,0

Time:,7,4,[5][1],VCUpdate,0

Time:,7,4,[3][0],SWUpdate,0

Time:,7,5,[1][0],InputQueueing,0

Time:,7,5,[0][0],VCUpdate,0

Time:,7,5,[8][1],SWUpdate,0

Time:,7,6,[32][6],SWUpdate,0

Time:,7,7,[11][2],InputQueueing,0

Time:,7,7,[30][6],InputQueueing,0

Time:,7,7,[10][2],VCUpdate,0

Time:,7,7,[37][7],SWUpdate,0

Time:,7,8,[35][7],InputQueueing,0

Time:,7,8,[13][2],SWUpdate,0

Time:,7,0,[17][3],SendingFlit,0

Time:,7,1,[41][8],SendingFlit,0

Time:,7,2,[22][4],SendingFlit,0

Time:,7,3,[27][5],SendingFlit,0

Time:,7,4,[3][0],SendingFlit,0

Time:,7,5,[8][1],SendingFlit,0

Time:,7,6,[32][6],SendingFlit,0

Time:,7,7,[37][7],SendingFlit,0

Time:,7,8,[13][2],SendingFlit,0

Time:,8,1,[21][4],ReceiveFlit,0

Time:,8,1,[16][3],ReceiveFlit,0

Time:,8,2,[40][8],ReceiveFlit,0

Time:,8,4,[7][1],ReceiveFlit,0

Time:,8,4,[26][5],ReceiveFlit,0

Time:,8,4,[4][0],ReceiveFlit,0

Time:,8,5,[2][0],ReceiveFlit,0

Time:,8,5,[9][1],ReceiveFlit,0

Time:,8,7,[12][2],ReceiveFlit,0

Time:,8,7,[31][6],ReceiveFlit,0

Time:,8,8,[36][7],ReceiveFlit,0

Time:,8,8,[14][2],ReceiveFlit,0

Time:,8,0,[60][12],GenFlit,-1

Time:,8,0,[61][12],GenFlit,-1

Time:,8,0,[62][12],GenFlit,-1

Time:,8,0,[63][12],GenFlit,-1

Time:,8,0,[64][12],GenFlit,-1

Time:,8,2,[65][13],GenFlit,-1

Time:,8,2,[66][13],GenFlit,-1

Time:,8,2,[67][13],GenFlit,-1

Time:,8,2,[68][13],GenFlit,-1

Time:,8,2,[69][13],GenFlit,-1

Time:,8,3,[70][14],GenFlit,-1

Time:,8,3,[71][14],GenFlit,-1

Time:,8,3,[72][14],GenFlit,-1

Time:,8,3,[73][14],GenFlit,-1

Time:,8,3,[74][14],GenFlit,-1

Time:,8,6,[75][15],GenFlit,-1

Time:,8,6,[76][15],GenFlit,-1

Time:,8,6,[77][15],GenFlit,-1

Time:,8,6,[78][15],GenFlit,-1

Time:,8,6,[79][15],GenFlit,-1

Time:,8,7,[80][16],GenFlit,-1

Time:,8,7,[81][16],GenFlit,-1

Time:,8,7,[82][16],GenFlit,-1

Time:,8,7,[83][16],GenFlit,-1

Time:,8,7,[84][16],GenFlit,-1

Time:,8,0,[18][3],SWUpdate,0

Time:,8,1,[21][4],InputQueueing,0

Time:,8,1,[16][3],InputQueueing,0

Time:,8,1,[20][4],VCUpdate,0

Time:,8,1,[15][3],VCUpdate,0

Time:,8,1,[42][8],SWUpdate,0

Time:,8,2,[40][8],InputQueueing,0

Time:,8,2,[23][4],SWUpdate,0

Time:,8,3,[28][5],SWUpdate,0

Time:,8,4,[7][1],InputQueueing,0

Time:,8,4,[26][5],InputQueueing,0

Time:,8,4,[4][0],InputQueueing,0

Time:,8,4,[25][5],VCUpdate,0

Time:,8,4,[5][1],SWUpdate,0

Time:,8,5,[2][0],InputQueueing,0

Time:,8,5,[9][1],InputQueueing,0

Time:,8,5,[0][0],SWUpdate,0

Time:,8,6,[33][6],SWUpdate,0

Time:,8,7,[12][2],InputQueueing,0

Time:,8,7,[31][6],InputQueueing,0

Time:,8,7,[30][6],VCUpdate,0

Time:,8,7,[10][2],SWUpdate,0

Time:,8,7,[38][7],SWUpdate,0

Time:,8,8,[36][7],InputQueueing,0

Time:,8,8,[14][2],InputQueueing,0

Time:,8,8,[35][7],VCUpdate,0

Time:,8,0,[18][3],SendingFlit,0

Time:,8,1,[42][8],SendingFlit,0

Time:,8,2,[23][4],SendingFlit,0

Time:,8,3,[28][5],SendingFlit,0

Time:,8,4,[5][1],SendingFlit,0

Time:,8,5,[0][0],SendingFlit,0

Time:,8,6,[33][6],SendingFlit,0

Time:,8,7,[38][7],SendingFlit,0

Time:,8,7,[10][2],SendingFlit,0

Time:,9,0,[19][3],ReceiveFlit,0

Time:,9,1,[22][4],ReceiveFlit,0

Time:,9,1,[17][3],ReceiveFlit,0

Time:,9,2,[41][8],ReceiveFlit,0

Time:,9,2,[24][4],ReceiveFlit,0

Time:,9,3,[29][5],ReceiveFlit,0

Time:,9,4,[8][1],ReceiveFlit,0

Time:,9,4,[27][5],ReceiveFlit,0

Time:,9,4,[45][9],ReceiveFlit,1

Time:,9,5,[3][0],ReceiveFlit,0

Time:,9,5,[50][10],ReceiveFlit,1

Time:,9,6,[34][6],ReceiveFlit,0

Time:,9,7,[13][2],ReceiveFlit,0

Time:,9,7,[32][6],ReceiveFlit,0

Time:,9,7,[39][7],ReceiveFlit,0

Time:,9,8,[37][7],ReceiveFlit,0

Time:,9,8,[55][11],ReceiveFlit,1

Time:,9,1,[85][17],GenFlit,-1

Time:,9,1,[86][17],GenFlit,-1

Time:,9,1,[87][17],GenFlit,-1

Time:,9,1,[88][17],GenFlit,-1

Time:,9,1,[89][17],GenFlit,-1

Time:,9,0,[19][3],InputQueueing,0

Time:,9,1,[22][4],InputQueueing,0

Time:,9,1,[17][3],InputQueueing,0

Time:,9,1,[20][4],SWUpdate,0

Time:,9,1,[15][3],SWUpdate,0

Time:,9,1,[43][8],SWUpdate,0

Time:,9,2,[41][8],InputQueueing,0

Time:,9,2,[24][4],InputQueueing,0

Time:,9,2,[40][8],VCUpdate,0

Time:,9,3,[29][5],InputQueueing,0

Time:,9,4,[8][1],InputQueueing,0

Time:,9,4,[27][5],InputQueueing,0

Time:,9,4,[45][9],InputQueueing,1

Time:,9,4,[25][5],SWUpdate,0

Time:,9,4,[6][1],SWUpdate,0

Time:,9,5,[3][0],InputQueueing,0

Time:,9,5,[50][10],InputQueueing,1

Time:,9,5,[1][0],SWUpdate,0

Time:,9,6,[34][6],InputQueueing,0

Time:,9,7,[13][2],InputQueueing,0

Time:,9,7,[32][6],InputQueueing,0

Time:,9,7,[39][7],InputQueueing,0

Time:,9,7,[30][6],SWUpdate,0

Time:,9,7,[11][2],SWUpdate,0

Time:,9,8,[37][7],InputQueueing,0

Time:,9,8,[55][11],InputQueueing,1

Time:,9,8,[35][7],SWUpdate,0

Time:,9,1,[43][8],SendingFlit,0

Time:,9,1,[20][4],SendingFlit,0

Time:,9,1,[15][3],SendingFlit,0

Time:,9,4,[6][1],SendingFlit,0

Time:,9,4,[25][5],SendingFlit,0

Time:,9,5,[1][0],SendingFlit,0

Time:,9,7,[11][2],SendingFlit,0

Time:,9,7,[30][6],SendingFlit,0

Time:,9,8,[35][7],SendingFlit,0

Time:,10,0,[60][12],ReceiveFlit,1

Time:,10,1,[23][4],ReceiveFlit,0

Time:,10,1,[18][3],ReceiveFlit,0

Time:,10,1,[44][8],ReceiveFlit,0

Time:,10,2,[42][8],ReceiveFlit,0

Time:,10,2,[65][13],ReceiveFlit,1

Time:,10,3,[5][1],ReceiveFlit,0

Time:,10,3,[70][14],ReceiveFlit,1

Time:,10,4,[28][5],ReceiveFlit,0

Time:,10,4,[46][9],ReceiveFlit,1

Time:,10,5,[51][10],ReceiveFlit,1

Time:,10,6,[10][2],ReceiveFlit,0

Time:,10,6,[75][15],ReceiveFlit,1

Time:,10,7,[33][6],ReceiveFlit,0

Time:,10,7,[80][16],ReceiveFlit,1

Time:,10,8,[38][7],ReceiveFlit,0

Time:,10,8,[0][0],ReceiveFlit,0

Time:,10,8,[56][11],ReceiveFlit,1

Time:,10,0,[60][12],InputQueueing,1

Time:,10,1,[23][4],InputQueueing,0

Time:,10,1,[18][3],InputQueueing,0

Time:,10,1,[44][8],InputQueueing,0

Time:,10,1,[21][4],SWUpdate,0

Time:,10,1,[16][3],SWUpdate,0

Time:,10,2,[42][8],InputQueueing,0

Time:,10,2,[65][13],InputQueueing,1

Time:,10,2,[40][8],SWUpdate,0

Time:,10,3,[5][1],InputQueueing,0

Time:,10,3,[70][14],InputQueueing,1

Time:,10,4,[28][5],InputQueueing,0

Time:,10,4,[46][9],InputQueueing,1

Time:,10,4,[45][9],VCUpdate,1

Time:,10,4,[26][5],SWUpdate,0

Time:,10,4,[7][1],SWUpdate,0

Time:,10,5,[51][10],InputQueueing,1

Time:,10,5,[50][10],VCUpdate,1

Time:,10,5,[2][0],SWUpdate,0

Time:,10,6,[10][2],InputQueueing,0

Time:,10,6,[75][15],InputQueueing,1

Time:,10,7,[33][6],InputQueueing,0

Time:,10,7,[80][16],InputQueueing,1

Time:,10,7,[31][6],SWUpdate,0

Time:,10,7,[12][2],SWUpdate,0

Time:,10,8,[38][7],InputQueueing,0

Time:,10,8,[0][0],InputQueueing,0

Time:,10,8,[56][11],InputQueueing,1

Time:,10,8,[55][11],VCUpdate,1

Time:,10,8,[36][7],SWUpdate,0

Time:,10,1,[21][4],SendingFlit,0

Time:,10,1,[16][3],SendingFlit,0

Time:,10,2,[40][8],SendingFlit,0

Time:,10,4,[7][1],SendingFlit,0

Time:,10,4,[26][5],SendingFlit,0

Time:,10,5,[2][0],SendingFlit,0

Time:,10,7,[12][2],SendingFlit,0

Time:,10,7,[31][6],SendingFlit,0

Time:,10,8,[36][7],SendingFlit,0

Time:,11,0,[20][4],ReceiveFlit,0

Time:,11,0,[61][12],ReceiveFlit,1

Time:,11,1,[85][17],ReceiveFlit,1

Time:,11,2,[43][8],ReceiveFlit,0

Time:,11,2,[66][13],ReceiveFlit,1

Time:,11,3,[6][1],ReceiveFlit,0

Time:,11,3,[71][14],ReceiveFlit,1

Time:,11,4,[30][6],ReceiveFlit,0

Time:,11,4,[15][3],ReceiveFlit,0

Time:,11,4,[47][9],ReceiveFlit,1

Time:,11,5,[35][7],ReceiveFlit,0

Time:,11,5,[52][10],ReceiveFlit,1

Time:,11,6,[11][2],ReceiveFlit,0

Time:,11,6,[76][15],ReceiveFlit,1

Time:,11,7,[25][5],ReceiveFlit,0

Time:,11,7,[81][16],ReceiveFlit,1

Time:,11,8,[1][0],ReceiveFlit,0

Time:,11,8,[57][11],ReceiveFlit,1

Time:,11,0,[20][4],InputQueueing,0

Time:,11,0,[61][12],InputQueueing,1

Time:,11,0,[60][12],VCUpdate,1

Time:,11,1,[85][17],InputQueueing,1

Time:,11,1,[22][4],SWUpdate,0

Time:,11,1,[17][3],SWUpdate,0

Time:,11,2,[43][8],InputQueueing,0

Time:,11,2,[66][13],InputQueueing,1

Time:,11,2,[65][13],VCUpdate,1

Time:,11,2,[41][8],SWUpdate,0

Time:,11,3,[6][1],InputQueueing,0

Time:,11,3,[71][14],InputQueueing,1

Time:,11,3,[5][1],VCUpdate,0

Time:,11,3,[70][14],VCUpdate,1

Time:,11,4,[30][6],InputQueueing,0

Time:,11,4,[15][3],InputQueueing,0

Time:,11,4,[47][9],InputQueueing,1

Time:,11,4,[45][9],SWUpdate,1

Time:,11,4,[27][5],SWUpdate,0

Time:,11,4,[8][1],SWUpdate,0

Time:,11,5,[35][7],InputQueueing,0

Time:,11,5,[52][10],InputQueueing,1

Time:,11,5,[50][10],SWUpdate,1

Time:,11,5,[3][0],SWUpdate,0

Time:,11,6,[11][2],InputQueueing,0

Time:,11,6,[76][15],InputQueueing,1

Time:,11,6,[10][2],VCUpdate,0

Time:,11,6,[75][15],VCUpdate,1

Time:,11,7,[25][5],InputQueueing,0

Time:,11,7,[81][16],InputQueueing,1

Time:,11,7,[80][16],VCUpdate,1

Time:,11,7,[32][6],SWUpdate,0

Time:,11,7,[13][2],SWUpdate,0

Time:,11,8,[1][0],InputQueueing,0

Time:,11,8,[57][11],InputQueueing,1

Time:,11,8,[0][0],VCUpdate,0

Time:,11,8,[55][11],SWUpdate,1

Time:,11,8,[37][7],SWUpdate,0

Time:,11,1,[22][4],SendingFlit,0

Time:,11,1,[17][3],SendingFlit,0

Time:,11,2,[41][8],SendingFlit,0

Time:,11,4,[45][9],SendingFlit,1

Time:,11,4,[8][1],SendingFlit,0

Time:,11,4,[27][5],SendingFlit,0

Time:,11,5,[50][10],SendingFlit,1

Time:,11,5,[3][0],SendingFlit,0

Time:,11,7,[13][2],SendingFlit,0

Time:,11,7,[32][6],SendingFlit,0

Time:,11,8,[55][11],SendingFlit,1

Time:,11,8,[37][7],SendingFlit,0

Time:,12,0,[21][4],ReceiveFlit,0

Time:,12,0,[62][12],ReceiveFlit,1

Time:,12,1,[86][17],ReceiveFlit,1

Time:,12,2,[67][13],ReceiveFlit,1

Time:,12,3,[7][1],ReceiveFlit,0

Time:,12,3,[72][14],ReceiveFlit,1

Time:,12,4,[31][6],ReceiveFlit,0

Time:,12,4,[16][3],ReceiveFlit,0

Time:,12,4,[48][9],ReceiveFlit,1

Time:,12,5,[36][7],ReceiveFlit,0

Time:,12,5,[40][8],ReceiveFlit,0

Time:,12,5,[53][10],ReceiveFlit,1

Time:,12,6,[12][2],ReceiveFlit,0

Time:,12,6,[77][15],ReceiveFlit,1

Time:,12,7,[26][5],ReceiveFlit,0

Time:,12,7,[82][16],ReceiveFlit,1

Time:,12,8,[2][0],ReceiveFlit,0

Time:,12,8,[58][11],ReceiveFlit,1

Time:,12,0,[21][4],InputQueueing,0

Time:,12,0,[62][12],InputQueueing,1

Time:,12,0,[20][4],VCUpdate,0

Time:,12,0,[60][12],SWUpdate,1

Time:,12,1,[86][17],InputQueueing,1

Time:,12,1,[85][17],VCUpdate,1

Time:,12,1,[23][4],SWUpdate,0

Time:,12,1,[18][3],SWUpdate,0

Time:,12,2,[67][13],InputQueueing,1

Time:,12,2,[65][13],SWUpdate,1

Time:,12,2,[42][8],SWUpdate,0

Time:,12,3,[7][1],InputQueueing,0

Time:,12,3,[72][14],InputQueueing,1

Time:,12,3,[5][1],SWUpdate,0

Time:,12,3,[70][14],SWUpdate,1

Time:,12,4,[31][6],InputQueueing,0

Time:,12,4,[16][3],InputQueueing,0

Time:,12,4,[48][9],InputQueueing,1

Time:,12,4,[30][6],VCUpdate,0

Time:,12,4,[15][3],VCUpdate,0

Time:,12,4,[28][5],SWUpdate,0

Time:,12,4,[4][0],SWUpdate,0

Time:,12,5,[36][7],InputQueueing,0

Time:,12,5,[40][8],InputQueueing,0

Time:,12,5,[53][10],InputQueueing,1

Time:,12,5,[35][7],VCUpdate,0

Time:,12,5,[9][1],SWUpdate,0

Time:,12,6,[12][2],InputQueueing,0

Time:,12,6,[77][15],InputQueueing,1

Time:,12,6,[10][2],SWUpdate,0

Time:,12,6,[75][15],SWUpdate,1

Time:,12,7,[26][5],InputQueueing,0

Time:,12,7,[82][16],InputQueueing,1

Time:,12,7,[25][5],VCUpdate,0

Time:,12,7,[80][16],SWUpdate,1

Time:,12,7,[33][6],SWUpdate,0

Time:,12,8,[2][0],InputQueueing,0

Time:,12,8,[58][11],InputQueueing,1

Time:,12,8,[0][0],SWUpdate,0

Time:,12,8,[38][7],SWUpdate,0

Time:,12,8,[14][2],SWUpdate,0

Time:,12,0,[60][12],SendingFlit,1

Time:,12,1,[23][4],SendingFlit,0

Time:,12,1,[18][3],SendingFlit,0

Time:,12,2,[65][13],SendingFlit,1

Time:,12,2,[42][8],SendingFlit,0

Time:,12,3,[70][14],SendingFlit,1

Time:,12,3,[5][1],SendingFlit,0

Time:,12,4,[4][0],SendingFlit,0

Time:,12,4,[28][5],SendingFlit,0

Time:,12,5,[9][1],SendingFlit,0

Time:,12,6,[75][15],SendingFlit,1

Time:,12,6,[10][2],SendingFlit,0

Time:,12,7,[80][16],SendingFlit,1

Time:,12,7,[33][6],SendingFlit,0

Time:,12,8,[14][2],SendingFlit,0

Time:,12,8,[38][7],SendingFlit,0

Time:,12,8,[0][0],SendingFlit,0

Time:,13,0,[22][4],ReceiveFlit,0

Time:,13,0,[63][12],ReceiveFlit,1

Time:,13,1,[87][17],ReceiveFlit,1

Time:,13,2,[68][13],ReceiveFlit,1

Time:,13,3,[8][1],ReceiveFlit,0

Time:,13,3,[73][14],ReceiveFlit,1

Time:,13,4,[50][10],ReceiveFlit,1

Time:,13,4,[32][6],ReceiveFlit,0

Time:,13,4,[17][3],ReceiveFlit,0

Time:,13,5,[45][9],ReceiveFlit,1

Time:,13,5,[37][7],ReceiveFlit,0

Time:,13,5,[41][8],ReceiveFlit,0

Time:,13,6,[13][2],ReceiveFlit,0

Time:,13,6,[78][15],ReceiveFlit,1

Time:,13,7,[55][11],ReceiveFlit,1

Time:,13,7,[27][5],ReceiveFlit,0

Time:,13,7,[83][16],ReceiveFlit,1

Time:,13,8,[3][0],ReceiveFlit,0

Time:,13,0,[22][4],InputQueueing,0

Time:,13,0,[63][12],InputQueueing,1

Time:,13,0,[20][4],SWUpdate,0

Time:,13,0,[19][3],SWUpdate,0

Time:,13,1,[87][17],InputQueueing,1

Time:,13,1,[85][17],SWUpdate,1

Time:,13,2,[68][13],InputQueueing,1

Time:,13,2,[43][8],SWUpdate,0

Time:,13,2,[24][4],SWUpdate,0

Time:,13,3,[8][1],InputQueueing,0

Time:,13,3,[73][14],InputQueueing,1

Time:,13,3,[6][1],SWUpdate,0

Time:,13,3,[29][5],SWUpdate,0

Time:,13,4,[50][10],InputQueueing,1

Time:,13,4,[32][6],InputQueueing,0

Time:,13,4,[17][3],InputQueueing,0

Time:,13,4,[30][6],SWUpdate,0

Time:,13,4,[15][3],SWUpdate,0

Time:,13,4,[46][9],SWUpdate,1

Time:,13,5,[45][9],InputQueueing,1

Time:,13,5,[37][7],InputQueueing,0

Time:,13,5,[41][8],InputQueueing,0

Time:,13,5,[40][8],VCUpdate,0

Time:,13,5,[35][7],SWUpdate,0

Time:,13,5,[51][10],SWUpdate,1

Time:,13,6,[13][2],InputQueueing,0

Time:,13,6,[78][15],InputQueueing,1

Time:,13,6,[11][2],SWUpdate,0

Time:,13,6,[34][6],SWUpdate,0

Time:,13,7,[55][11],InputQueueing,1

Time:,13,7,[27][5],InputQueueing,0

Time:,13,7,[83][16],InputQueueing,1

Time:,13,7,[25][5],SWUpdate,0

Time:,13,7,[39][7],SWUpdate,0

Time:,13,8,[3][0],InputQueueing,0

Time:,13,8,[1][0],SWUpdate,0

Time:,13,8,[56][11],SWUpdate,1

Time:,13,0,[19][3],SendingFlit,0

Time:,13,0,[20][4],SendingFlit,0

Time:,13,1,[85][17],SendingFlit,1

Time:,13,2,[24][4],SendingFlit,0

Time:,13,2,[43][8],SendingFlit,0

Time:,13,3,[29][5],SendingFlit,0

Time:,13,3,[6][1],SendingFlit,0

Time:,13,4,[46][9],SendingFlit,1

Time:,13,4,[30][6],SendingFlit,0

Time:,13,4,[15][3],SendingFlit,0

Time:,13,5,[51][10],SendingFlit,1

Time:,13,5,[35][7],SendingFlit,0

Time:,13,6,[34][6],SendingFlit,0

Time:,13,6,[11][2],SendingFlit,0

Time:,13,7,[39][7],SendingFlit,0

Time:,13,7,[25][5],SendingFlit,0

Time:,13,8,[56][11],SendingFlit,1

Time:,13,8,[1][0],SendingFlit,0

Time:,14,0,[23][4],ReceiveFlit,0

Time:,14,1,[65][13],ReceiveFlit,1

Time:,14,1,[60][12],ReceiveFlit,1

Time:,14,1,[88][17],ReceiveFlit,1

Time:,14,3,[10][2],ReceiveFlit,0

Time:,14,4,[9][1],ReceiveFlit,0

Time:,14,4,[70][14],ReceiveFlit,1

Time:,14,4,[33][6],ReceiveFlit,0

Time:,14,4,[18][3],ReceiveFlit,0

Time:,14,5,[4][0],ReceiveFlit,0

Time:,14,5,[38][7],ReceiveFlit,0

Time:,14,5,[42][8],ReceiveFlit,0

Time:,14,6,[5][1],ReceiveFlit,0

Time:,14,7,[14][2],ReceiveFlit,0

Time:,14,7,[75][15],ReceiveFlit,1

Time:,14,7,[28][5],ReceiveFlit,0

Time:,14,8,[80][16],ReceiveFlit,1

Time:,14,4,[90][18],GenFlit,-1

Time:,14,4,[91][18],GenFlit,-1

Time:,14,4,[92][18],GenFlit,-1

Time:,14,4,[93][18],GenFlit,-1

Time:,14,4,[94][18],GenFlit,-1

Time:,14,5,[95][19],GenFlit,-1

Time:,14,5,[96][19],GenFlit,-1

Time:,14,5,[97][19],GenFlit,-1

Time:,14,5,[98][19],GenFlit,-1

Time:,14,5,[99][19],GenFlit,-1

Time:,14,8,[100][20],GenFlit,-1

Time:,14,8,[101][20],GenFlit,-1

Time:,14,8,[102][20],GenFlit,-1

Time:,14,8,[103][20],GenFlit,-1

Time:,14,8,[104][20],GenFlit,-1

Time:,14,8,[0][0],RetFlit,0

Time:,14,0,[23][4],InputQueueing,0

Time:,14,0,[21][4],SWUpdate,0

Time:,14,0,[61][12],SWUpdate,1

Time:,14,1,[65][13],InputQueueing,1

Time:,14,1,[60][12],InputQueueing,1

Time:,14,1,[88][17],InputQueueing,1

Time:,14,1,[44][8],SWUpdate,0

Time:,14,2,[66][13],SWUpdate,1

Time:,14,3,[10][2],InputQueueing,0

Time:,14,3,[7][1],SWUpdate,0

Time:,14,3,[71][14],SWUpdate,1

Time:,14,4,[9][1],InputQueueing,0

Time:,14,4,[70][14],InputQueueing,1

Time:,14,4,[33][6],InputQueueing,0

Time:,14,4,[18][3],InputQueueing,0

Time:,14,4,[50][10],VCUpdate,1

Time:,14,4,[31][6],SWUpdate,0

Time:,14,4,[16][3],SWUpdate,0

Time:,14,4,[47][9],SWUpdate,1

Time:,14,5,[4][0],InputQueueing,0

Time:,14,5,[38][7],InputQueueing,0

Time:,14,5,[42][8],InputQueueing,0

Time:,14,5,[45][9],VCUpdate,1

Time:,14,5,[40][8],SWUpdate,0

Time:,14,5,[36][7],SWUpdate,0

Time:,14,5,[52][10],SWUpdate,1

Time:,14,6,[5][1],InputQueueing,0

Time:,14,6,[12][2],SWUpdate,0

Time:,14,6,[76][15],SWUpdate,1

Time:,14,7,[14][2],InputQueueing,0

Time:,14,7,[75][15],InputQueueing,1

Time:,14,7,[28][5],InputQueueing,0

Time:,14,7,[55][11],VCUpdate,1

Time:,14,7,[26][5],SWUpdate,0

Time:,14,7,[81][16],SWUpdate,1

Time:,14,8,[80][16],InputQueueing,1

Time:,14,8,[2][0],SWUpdate,0

Time:,14,8,[57][11],SWUpdate,1

Time:,14,0,[61][12],SendingFlit,1

Time:,14,0,[21][4],SendingFlit,0

Time:,14,1,[44][8],SendingFlit,0

Time:,14,2,[66][13],SendingFlit,1

Time:,14,3,[71][14],SendingFlit,1

Time:,14,3,[7][1],SendingFlit,0

Time:,14,4,[47][9],SendingFlit,1

Time:,14,4,[31][6],SendingFlit,0

Time:,14,4,[16][3],SendingFlit,0

Time:,14,5,[52][10],SendingFlit,1

Time:,14,5,[36][7],SendingFlit,0

Time:,14,5,[40][8],SendingFlit,0

Time:,14,6,[76][15],SendingFlit,1

Time:,14,6,[12][2],SendingFlit,0

Time:,14,7,[81][16],SendingFlit,1

Time:,14,7,[26][5],SendingFlit,0

Time:,14,8,[57][11],SendingFlit,1

Time:,14,8,[2][0],SendingFlit,0

Time:,15,1,[24][4],ReceiveFlit,0

Time:,15,1,[19][3],ReceiveFlit,0

Time:,15,1,[30][6],ReceiveFlit,0

Time:,15,2,[85][17],ReceiveFlit,1

Time:,15,2,[35][7],ReceiveFlit,0

Time:,15,3,[11][2],ReceiveFlit,0

Time:,15,3,[20][4],ReceiveFlit,0

Time:,15,4,[51][10],ReceiveFlit,1

Time:,15,4,[29][5],ReceiveFlit,0

Time:,15,4,[49][9],ReceiveFlit,1

Time:,15,5,[46][9],ReceiveFlit,1

Time:,15,5,[43][8],ReceiveFlit,0

Time:,15,5,[54][10],ReceiveFlit,1

Time:,15,6,[6][1],ReceiveFlit,0

Time:,15,7,[56][11],ReceiveFlit,1

Time:,15,7,[34][6],ReceiveFlit,0

Time:,15,8,[39][7],ReceiveFlit,0

Time:,15,8,[59][11],ReceiveFlit,1

Time:,15,0,[105][21],GenFlit,-1

Time:,15,0,[106][21],GenFlit,-1

Time:,15,0,[107][21],GenFlit,-1

Time:,15,0,[108][21],GenFlit,-1

Time:,15,0,[109][21],GenFlit,-1

Time:,15,2,[110][22],GenFlit,-1

Time:,15,2,[111][22],GenFlit,-1

Time:,15,2,[112][22],GenFlit,-1

Time:,15,2,[113][22],GenFlit,-1

Time:,15,2,[114][22],GenFlit,-1

Time:,15,3,[115][23],GenFlit,-1

Time:,15,3,[116][23],GenFlit,-1

Time:,15,3,[117][23],GenFlit,-1

Time:,15,3,[118][23],GenFlit,-1

Time:,15,3,[119][23],GenFlit,-1

Time:,15,6,[120][24],GenFlit,-1

Time:,15,6,[121][24],GenFlit,-1

Time:,15,6,[122][24],GenFlit,-1

Time:,15,6,[123][24],GenFlit,-1

Time:,15,6,[124][24],GenFlit,-1

Time:,15,7,[125][25],GenFlit,-1

Time:,15,7,[126][25],GenFlit,-1

Time:,15,7,[127][25],GenFlit,-1

Time:,15,7,[128][25],GenFlit,-1

Time:,15,7,[129][25],GenFlit,-1

Time:,15,4,[15][3],RetFlit,0

Time:,15,7,[25][5],RetFlit,0

Time:,15,8,[1][0],RetFlit,0

Time:,15,0,[22][4],SWUpdate,0

Time:,15,0,[62][12],SWUpdate,1

Time:,15,1,[24][4],InputQueueing,0

Time:,15,1,[19][3],InputQueueing,0

Time:,15,1,[30][6],InputQueueing,0

Time:,15,1,[65][13],VCUpdate,1

Time:,15,1,[60][12],VCUpdate,1

Time:,15,1,[86][17],SWUpdate,1

Time:,15,2,[85][17],InputQueueing,1

Time:,15,2,[35][7],InputQueueing,0

Time:,15,2,[67][13],SWUpdate,1

Time:,15,3,[11][2],InputQueueing,0

Time:,15,3,[20][4],InputQueueing,0

Time:,15,3,[10][2],VCUpdate,0

Time:,15,3,[8][1],SWUpdate,0

Time:,15,3,[72][14],SWUpdate,1

Time:,15,4,[51][10],InputQueueing,1

Time:,15,4,[29][5],InputQueueing,0

Time:,15,4,[49][9],InputQueueing,1

Time:,15,4,[70][14],VCUpdate,1

Time:,15,4,[50][10],SWUpdate,1

Time:,15,4,[32][6],SWUpdate,0

Time:,15,4,[17][3],SWUpdate,0

Time:,15,4,[48][9],SWUpdate,1

Time:,15,5,[46][9],InputQueueing,1

Time:,15,5,[43][8],InputQueueing,0

Time:,15,5,[54][10],InputQueueing,1

Time:,15,5,[45][9],SWUpdate,1

Time:,15,5,[41][8],SWUpdate,0

Time:,15,5,[37][7],SWUpdate,0

Time:,15,5,[53][10],SWUpdate,1

Time:,15,6,[6][1],InputQueueing,0

Time:,15,6,[5][1],VCUpdate,0

Time:,15,6,[13][2],SWUpdate,0

Time:,15,6,[77][15],SWUpdate,1

Time:,15,7,[56][11],InputQueueing,1

Time:,15,7,[34][6],InputQueueing,0

Time:,15,7,[75][15],VCUpdate,1

Time:,15,7,[55][11],SWUpdate,1

Time:,15,7,[27][5],SWUpdate,0

Time:,15,7,[82][16],SWUpdate,1

Time:,15,8,[39][7],InputQueueing,0

Time:,15,8,[59][11],InputQueueing,1

Time:,15,8,[80][16],VCUpdate,1

Time:,15,8,[3][0],SWUpdate,0

Time:,15,8,[58][11],SWUpdate,1

Time:,15,0,[62][12],SendingFlit,1

Time:,15,0,[22][4],SendingFlit,0

Time:,15,1,[86][17],SendingFlit,1

Time:,15,2,[67][13],SendingFlit,1

Time:,15,3,[72][14],SendingFlit,1

Time:,15,3,[8][1],SendingFlit,0

Time:,15,4,[48][9],SendingFlit,1

Time:,15,4,[50][10],SendingFlit,1

Time:,15,4,[32][6],SendingFlit,0

Time:,15,4,[17][3],SendingFlit,0

Time:,15,5,[53][10],SendingFlit,1

Time:,15,5,[45][9],SendingFlit,1

Time:,15,5,[37][7],SendingFlit,0

Time:,15,5,[41][8],SendingFlit,0

Time:,15,6,[77][15],SendingFlit,1

Time:,15,6,[13][2],SendingFlit,0

Time:,15,7,[82][16],SendingFlit,1

Time:,15,7,[55][11],SendingFlit,1

Time:,15,7,[27][5],SendingFlit,0

Time:,15,8,[58][11],SendingFlit,1

Time:,15,8,[3][0],SendingFlit,0

Time:,16,0,[64][12],ReceiveFlit,1

Time:,16,1,[66][13],ReceiveFlit,1

Time:,16,1,[61][12],ReceiveFlit,1

Time:,16,1,[31][6],ReceiveFlit,0

Time:,16,2,[44][8],ReceiveFlit,0

Time:,16,2,[36][7],ReceiveFlit,0

Time:,16,2,[69][13],ReceiveFlit,1

Time:,16,3,[12][2],ReceiveFlit,0

Time:,16,3,[21][4],ReceiveFlit,0

Time:,16,3,[74][14],ReceiveFlit,1

Time:,16,4,[52][10],ReceiveFlit,1

Time:,16,4,[71][14],ReceiveFlit,1

Time:,16,4,[90][18],ReceiveFlit,2

Time:,16,5,[47][9],ReceiveFlit,1

Time:,16,5,[95][19],ReceiveFlit,2

Time:,16,6,[7][1],ReceiveFlit,0

Time:,16,6,[79][15],ReceiveFlit,1

Time:,16,7,[57][11],ReceiveFlit,1

Time:,16,7,[76][15],ReceiveFlit,1

Time:,16,7,[84][16],ReceiveFlit,1

Time:,16,8,[81][16],ReceiveFlit,1

Time:,16,8,[100][20],ReceiveFlit,2

Time:,16,1,[130][26],GenFlit,-1

Time:,16,1,[131][26],GenFlit,-1

Time:,16,1,[132][26],GenFlit,-1

Time:,16,1,[133][26],GenFlit,-1

Time:,16,1,[134][26],GenFlit,-1

Time:,16,4,[16][3],RetFlit,0

Time:,16,5,[40][8],RetFlit,0

Time:,16,7,[26][5],RetFlit,0

Time:,16,8,[2][0],RetFlit,0

Time:,16,0,[64][12],InputQueueing,1

Time:,16,0,[23][4],SWUpdate,0

Time:,16,0,[63][12],SWUpdate,1

Time:,16,1,[66][13],InputQueueing,1

Time:,16,1,[61][12],InputQueueing,1

Time:,16,1,[31][6],InputQueueing,0

Time:,16,1,[30][6],VCUpdate,0

Time:,16,1,[65][13],SWUpdate,1

Time:,16,1,[60][12],SWUpdate,1

Time:,16,1,[87][17],SWUpdate,1

Time:,16,2,[44][8],InputQueueing,0

Time:,16,2,[36][7],InputQueueing,0

Time:,16,2,[69][13],InputQueueing,1

Time:,16,2,[85][17],VCUpdate,1

Time:,16,2,[35][7],VCUpdate,0

Time:,16,2,[68][13],SWUpdate,1

Time:,16,3,[12][2],InputQueueing,0

Time:,16,3,[21][4],InputQueueing,0

Time:,16,3,[74][14],InputQueueing,1

Time:,16,3,[20][4],VCUpdate,0

Time:,16,3,[10][2],SWUpdate,0

Time:,16,3,[73][14],SWUpdate,1

Time:,16,4,[52][10],InputQueueing,1

Time:,16,4,[71][14],InputQueueing,1

Time:,16,4,[90][18],InputQueueing,2

Time:,16,4,[70][14],SWUpdate,1

Time:,16,4,[33][6],SWUpdate,0

Time:,16,4,[18][3],SWUpdate,0

Time:,16,4,[9][1],SWUpdate,0

Time:,16,5,[47][9],InputQueueing,1

Time:,16,5,[95][19],InputQueueing,2

Time:,16,5,[42][8],SWUpdate,0

Time:,16,5,[38][7],SWUpdate,0

Time:,16,5,[4][0],SWUpdate,0

Time:,16,6,[7][1],InputQueueing,0

Time:,16,6,[79][15],InputQueueing,1

Time:,16,6,[5][1],SWUpdate,0

Time:,16,6,[78][15],SWUpdate,1

Time:,16,7,[57][11],InputQueueing,1

Time:,16,7,[76][15],InputQueueing,1

Time:,16,7,[84][16],InputQueueing,1

Time:,16,7,[75][15],SWUpdate,1

Time:,16,7,[28][5],SWUpdate,0

Time:,16,7,[83][16],SWUpdate,1

Time:,16,7,[14][2],SWUpdate,0

Time:,16,8,[81][16],InputQueueing,1

Time:,16,8,[100][20],InputQueueing,2

Time:,16,8,[80][16],SWUpdate,1

Time:,16,0,[63][12],SendingFlit,1

Time:,16,0,[23][4],SendingFlit,0

Time:,16,1,[87][17],SendingFlit,1

Time:,16,1,[65][13],SendingFlit,1

Time:,16,1,[60][12],SendingFlit,1

Time:,16,2,[68][13],SendingFlit,1

Time:,16,3,[73][14],SendingFlit,1

Time:,16,3,[10][2],SendingFlit,0

Time:,16,4,[9][1],SendingFlit,0

Time:,16,4,[70][14],SendingFlit,1

Time:,16,4,[33][6],SendingFlit,0

Time:,16,4,[18][3],SendingFlit,0

Time:,16,5,[4][0],SendingFlit,0

Time:,16,5,[38][7],SendingFlit,0

Time:,16,5,[42][8],SendingFlit,0

Time:,16,6,[78][15],SendingFlit,1

Time:,16,6,[5][1],SendingFlit,0

Time:,16,7,[83][16],SendingFlit,1

Time:,16,7,[14][2],SendingFlit,0

Time:,16,7,[75][15],SendingFlit,1

Time:,16,7,[28][5],SendingFlit,0

Time:,16,8,[80][16],SendingFlit,1

Time:,17,0,[105][21],ReceiveFlit,2

Time:,17,1,[67][13],ReceiveFlit,1

Time:,17,1,[62][12],ReceiveFlit,1

Time:,17,1,[32][6],ReceiveFlit,0

Time:,17,1,[89][17],ReceiveFlit,1

Time:,17,2,[86][17],ReceiveFlit,1

Time:,17,2,[37][7],ReceiveFlit,0

Time:,17,2,[110][22],ReceiveFlit,2

Time:,17,3,[50][10],ReceiveFlit,1

Time:,17,3,[13][2],ReceiveFlit,0

Time:,17,3,[22][4],ReceiveFlit,0

Time:,17,3,[115][23],ReceiveFlit,2

Time:,17,4,[53][10],ReceiveFlit,1

Time:,17,4,[72][14],ReceiveFlit,1

Time:,17,4,[91][18],ReceiveFlit,2

Time:,17,5,[48][9],ReceiveFlit,1

Time:,17,5,[96][19],ReceiveFlit,2

Time:,17,6,[55][11],ReceiveFlit,1

Time:,17,6,[8][1],ReceiveFlit,0

Time:,17,6,[120][24],ReceiveFlit,2

Time:,17,7,[58][11],ReceiveFlit,1

Time:,17,7,[77][15],ReceiveFlit,1

Time:,17,7,[125][25],ReceiveFlit,2

Time:,17,8,[82][16],ReceiveFlit,1

Time:,17,8,[45][9],ReceiveFlit,1

Time:,17,8,[101][20],ReceiveFlit,2

Time:,17,4,[17][3],RetFlit,0

Time:,17,5,[41][8],RetFlit,0

Time:,17,7,[27][5],RetFlit,0

Time:,17,8,[3][0],RetFlit,0

Time:,17,0,[105][21],InputQueueing,2

Time:,17,1,[67][13],InputQueueing,1

Time:,17,1,[62][12],InputQueueing,1

Time:,17,1,[32][6],InputQueueing,0

Time:,17,1,[89][17],InputQueueing,1

Time:,17,1,[30][6],SWUpdate,0

Time:,17,1,[88][17],SWUpdate,1

Time:,17,1,[24][4],SWUpdate,0

Time:,17,1,[19][3],SWUpdate,0

Time:,17,2,[86][17],InputQueueing,1

Time:,17,2,[37][7],InputQueueing,0

Time:,17,2,[110][22],InputQueueing,2

Time:,17,2,[85][17],SWUpdate,1

Time:,17,2,[35][7],SWUpdate,0

Time:,17,3,[50][10],InputQueueing,1

Time:,17,3,[13][2],InputQueueing,0

Time:,17,3,[22][4],InputQueueing,0

Time:,17,3,[115][23],InputQueueing,2

Time:,17,3,[20][4],SWUpdate,0

Time:,17,3,[11][2],SWUpdate,0

Time:,17,4,[53][10],InputQueueing,1

Time:,17,4,[72][14],InputQueueing,1

Time:,17,4,[91][18],InputQueueing,2

Time:,17,4,[90][18],VCUpdate,2

Time:,17,4,[51][10],SWUpdate,1

Time:,17,4,[29][5],SWUpdate,0

Time:,17,5,[48][9],InputQueueing,1

Time:,17,5,[96][19],InputQueueing,2

Time:,17,5,[95][19],VCUpdate,2

Time:,17,5,[46][9],SWUpdate,1

Time:,17,5,[43][8],SWUpdate,0

Time:,17,6,[55][11],InputQueueing,1

Time:,17,6,[8][1],InputQueueing,0

Time:,17,6,[120][24],InputQueueing,2

Time:,17,6,[6][1],SWUpdate,0

Time:,17,7,[58][11],InputQueueing,1

Time:,17,7,[77][15],InputQueueing,1

Time:,17,7,[125][25],InputQueueing,2

Time:,17,7,[56][11],SWUpdate,1

Time:,17,7,[34][6],SWUpdate,0

Time:,17,8,[82][16],InputQueueing,1

Time:,17,8,[45][9],InputQueueing,1

Time:,17,8,[101][20],InputQueueing,2

Time:,17,8,[100][20],VCUpdate,2

Time:,17,8,[39][7],SWUpdate,0

Time:,17,1,[88][17],SendingFlit,1

Time:,17,1,[24][4],SendingFlit,0

Time:,17,1,[19][3],SendingFlit,0

Time:,17,1,[30][6],SendingFlit,0

Time:,17,2,[85][17],SendingFlit,1

Time:,17,2,[35][7],SendingFlit,0

Time:,17,3,[11][2],SendingFlit,0

Time:,17,3,[20][4],SendingFlit,0

Time:,17,4,[51][10],SendingFlit,1

Time:,17,4,[29][5],SendingFlit,0

Time:,17,5,[46][9],SendingFlit,1

Time:,17,5,[43][8],SendingFlit,0

Time:,17,6,[6][1],SendingFlit,0

Time:,17,7,[56][11],SendingFlit,1

Time:,17,7,[34][6],SendingFlit,0

Time:,17,8,[39][7],SendingFlit,0

Time:,18,0,[65][13],ReceiveFlit,1

Time:,18,0,[10][2],ReceiveFlit,0

Time:,18,0,[106][21],ReceiveFlit,2

Time:,18,1,[68][13],ReceiveFlit,1

Time:,18,1,[63][12],ReceiveFlit,1

Time:,18,1,[33][6],ReceiveFlit,0

Time:,18,1,[130][26],ReceiveFlit,2

Time:,18,2,[87][17],ReceiveFlit,1

Time:,18,2,[38][7],ReceiveFlit,0

Time:,18,2,[111][22],ReceiveFlit,2

Time:,18,3,[9][1],ReceiveFlit,0

Time:,18,3,[23][4],ReceiveFlit,0

Time:,18,3,[116][23],ReceiveFlit,2

Time:,18,4,[73][14],ReceiveFlit,1

Time:,18,4,[75][15],ReceiveFlit,1

Time:,18,4,[60][12],ReceiveFlit,1

Time:,18,4,[92][18],ReceiveFlit,2

Time:,18,5,[80][16],ReceiveFlit,1

Time:,18,5,[97][19],ReceiveFlit,2

Time:,18,6,[14][2],ReceiveFlit,0

Time:,18,6,[121][24],ReceiveFlit,2

Time:,18,7,[78][15],ReceiveFlit,1

Time:,18,7,[70][14],ReceiveFlit,1

Time:,18,7,[126][25],ReceiveFlit,2

Time:,18,8,[83][16],ReceiveFlit,1

Time:,18,8,[4][0],ReceiveFlit,0

Time:,18,8,[102][20],ReceiveFlit,2

Time:,18,4,[18][3],RetFlit,0

Time:,18,5,[42][8],RetFlit,0

Time:,18,6,[5][1],RetFlit,0

Time:,18,7,[28][5],RetFlit,0

Time:,18,0,[65][13],InputQueueing,1

Time:,18,0,[10][2],InputQueueing,0

Time:,18,0,[106][21],InputQueueing,2

Time:,18,0,[105][21],VCUpdate,2

Time:,18,1,[68][13],InputQueueing,1

Time:,18,1,[63][12],InputQueueing,1

Time:,18,1,[33][6],InputQueueing,0

Time:,18,1,[130][26],InputQueueing,2

Time:,18,1,[31][6],SWUpdate,0

Time:,18,1,[66][13],SWUpdate,1

Time:,18,1,[61][12],SWUpdate,1

Time:,18,2,[87][17],InputQueueing,1

Time:,18,2,[38][7],InputQueueing,0

Time:,18,2,[111][22],InputQueueing,2

Time:,18,2,[110][22],VCUpdate,2

Time:,18,2,[36][7],SWUpdate,0

Time:,18,2,[44][8],SWUpdate,0

Time:,18,3,[9][1],InputQueueing,0

Time:,18,3,[23][4],InputQueueing,0

Time:,18,3,[116][23],InputQueueing,2

Time:,18,3,[50][10],VCUpdate,1

Time:,18,3,[115][23],VCUpdate,2

Time:,18,3,[21][4],SWUpdate,0

Time:,18,3,[12][2],SWUpdate,0

Time:,18,4,[73][14],InputQueueing,1

Time:,18,4,[75][15],InputQueueing,1

Time:,18,4,[60][12],InputQueueing,1

Time:,18,4,[92][18],InputQueueing,2

Time:,18,4,[90][18],SWUpdate,2

Time:,18,4,[71][14],SWUpdate,1

Time:,18,4,[52][10],SWUpdate,1

Time:,18,5,[80][16],InputQueueing,1

Time:,18,5,[97][19],InputQueueing,2

Time:,18,5,[95][19],SWUpdate,2

Time:,18,5,[47][9],SWUpdate,1

Time:,18,6,[14][2],InputQueueing,0

Time:,18,6,[121][24],InputQueueing,2

Time:,18,6,[55][11],VCUpdate,1

Time:,18,6,[120][24],VCUpdate,2

Time:,18,6,[7][1],SWUpdate,0

Time:,18,7,[78][15],InputQueueing,1

Time:,18,7,[70][14],InputQueueing,1

Time:,18,7,[126][25],InputQueueing,2

Time:,18,7,[125][25],VCUpdate,2

Time:,18,7,[76][15],SWUpdate,1

Time:,18,7,[57][11],SWUpdate,1

Time:,18,8,[83][16],InputQueueing,1

Time:,18,8,[4][0],InputQueueing,0

Time:,18,8,[102][20],InputQueueing,2

Time:,18,8,[45][9],VCUpdate,1

Time:,18,8,[100][20],SWUpdate,2

Time:,18,8,[81][16],SWUpdate,1

Time:,18,8,[4][0],SWUpdate,0

Time:,18,1,[66][13],SendingFlit,1

Time:,18,1,[61][12],SendingFlit,1

Time:,18,1,[31][6],SendingFlit,0

Time:,18,2,[44][8],SendingFlit,0

Time:,18,2,[36][7],SendingFlit,0

Time:,18,3,[12][2],SendingFlit,0

Time:,18,3,[21][4],SendingFlit,0

Time:,18,4,[90][18],SendingFlit,2

Time:,18,4,[52][10],SendingFlit,1

Time:,18,4,[71][14],SendingFlit,1

Time:,18,5,[95][19],SendingFlit,2

Time:,18,5,[47][9],SendingFlit,1

Time:,18,6,[7][1],SendingFlit,0

Time:,18,7,[57][11],SendingFlit,1

Time:,18,7,[76][15],SendingFlit,1

Time:,18,8,[100][20],SendingFlit,2

Time:,18,8,[81][16],SendingFlit,1

Time:,18,8,[4][0],SendingFlit,0

Time:,19,0,[24][4],ReceiveFlit,0

Time:,19,0,[11][2],ReceiveFlit,0

Time:,19,0,[107][21],ReceiveFlit,2

Time:,19,1,[131][26],ReceiveFlit,2

Time:,19,2,[88][17],ReceiveFlit,1

Time:,19,2,[112][22],ReceiveFlit,2

Time:,19,3,[51][10],ReceiveFlit,1

Time:,19,3,[117][23],ReceiveFlit,2

Time:,19,4,[34][6],ReceiveFlit,0

Time:,19,4,[19][3],ReceiveFlit,0

Time:,19,4,[93][18],ReceiveFlit,2

Time:,19,5,[39][7],ReceiveFlit,0

Time:,19,5,[85][17],ReceiveFlit,1

Time:,19,5,[98][19],ReceiveFlit,2

Time:,19,6,[56][11],ReceiveFlit,1

Time:,19,6,[122][24],ReceiveFlit,2

Time:,19,7,[29][5],ReceiveFlit,0

Time:,19,7,[127][25],ReceiveFlit,2

Time:,19,8,[46][9],ReceiveFlit,1

Time:,19,8,[103][20],ReceiveFlit,2

Time:,19,1,[30][6],RetFlit,0

Time:,19,2,[35][7],RetFlit,0

Time:,19,3,[20][4],RetFlit,0

Time:,19,5,[43][8],RetFlit,0

Time:,19,6,[6][1],RetFlit,0

Time:,19,0,[24][4],InputQueueing,0

Time:,19,0,[11][2],InputQueueing,0

Time:,19,0,[107][21],InputQueueing,2

Time:,19,0,[65][13],VCUpdate,1

Time:,19,0,[10][2],VCUpdate,0

Time:,19,0,[105][21],SWUpdate,2

Time:,19,1,[131][26],InputQueueing,2

Time:,19,1,[130][26],VCUpdate,2

Time:,19,1,[32][6],SWUpdate,0

Time:,19,1,[67][13],SWUpdate,1

Time:,19,1,[62][12],SWUpdate,1

Time:,19,2,[88][17],InputQueueing,1

Time:,19,2,[112][22],InputQueueing,2

Time:,19,2,[110][22],SWUpdate,2

Time:,19,2,[86][17],SWUpdate,1

Time:,19,2,[37][7],SWUpdate,0

Time:,19,3,[51][10],InputQueueing,1

Time:,19,3,[117][23],InputQueueing,2

Time:,19,3,[50][10],SWUpdate,1

Time:,19,3,[115][23],SWUpdate,2

Time:,19,3,[22][4],SWUpdate,0

Time:,19,3,[13][2],SWUpdate,0

Time:,19,4,[34][6],InputQueueing,0

Time:,19,4,[19][3],InputQueueing,0

Time:,19,4,[93][18],InputQueueing,2

Time:,19,4,[75][15],VCUpdate,1

Time:,19,4,[60][12],VCUpdate,1

Time:,19,4,[72][14],SWUpdate,1

Time:,19,4,[53][10],SWUpdate,1

Time:,19,4,[49][9],SWUpdate,1

Time:,19,4,[19][3],SWUpdate,0

Time:,19,5,[39][7],InputQueueing,0

Time:,19,5,[85][17],InputQueueing,1

Time:,19,5,[98][19],InputQueueing,2

Time:,19,5,[80][16],VCUpdate,1

Time:,19,5,[48][9],SWUpdate,1

Time:,19,5,[54][10],SWUpdate,1

Time:,19,6,[56][11],InputQueueing,1

Time:,19,6,[122][24],InputQueueing,2

Time:,19,6,[55][11],SWUpdate,1

Time:,19,6,[120][24],SWUpdate,2

Time:,19,6,[8][1],SWUpdate,0

Time:,19,7,[29][5],InputQueueing,0

Time:,19,7,[127][25],InputQueueing,2

Time:,19,7,[70][14],VCUpdate,1

Time:,19,7,[125][25],SWUpdate,2

Time:,19,7,[77][15],SWUpdate,1

Time:,19,7,[58][11],SWUpdate,1

Time:,19,7,[29][5],SWUpdate,0

Time:,19,8,[46][9],InputQueueing,1

Time:,19,8,[103][20],InputQueueing,2

Time:,19,8,[45][9],SWUpdate,1

Time:,19,8,[82][16],SWUpdate,1

Time:,19,8,[59][11],SWUpdate,1

Time:,19,0,[105][21],SendingFlit,2

Time:,19,1,[67][13],SendingFlit,1

Time:,19,1,[62][12],SendingFlit,1

Time:,19,1,[32][6],SendingFlit,0

Time:,19,2,[110][22],SendingFlit,2

Time:,19,2,[86][17],SendingFlit,1

Time:,19,2,[37][7],SendingFlit,0

Time:,19,3,[115][23],SendingFlit,2

Time:,19,3,[50][10],SendingFlit,1

Time:,19,3,[13][2],SendingFlit,0

Time:,19,3,[22][4],SendingFlit,0

Time:,19,4,[49][9],SendingFlit,1

Time:,19,4,[53][10],SendingFlit,1

Time:,19,4,[72][14],SendingFlit,1

Time:,19,4,[19][3],SendingFlit,0

Time:,19,5,[54][10],SendingFlit,1

Time:,19,5,[48][9],SendingFlit,1

Time:,19,6,[120][24],SendingFlit,2

Time:,19,6,[55][11],SendingFlit,1

Time:,19,6,[8][1],SendingFlit,0

Time:,19,7,[125][25],SendingFlit,2

Time:,19,7,[58][11],SendingFlit,1

Time:,19,7,[77][15],SendingFlit,1

Time:,19,7,[29][5],SendingFlit,0

Time:,19,8,[59][11],SendingFlit,1

Time:,19,8,[82][16],SendingFlit,1

Time:,19,8,[45][9],SendingFlit,1

Time:,20,0,[66][13],ReceiveFlit,1

Time:,20,0,[12][2],ReceiveFlit,0

Time:,20,0,[108][21],ReceiveFlit,2

Time:,20,1,[132][26],ReceiveFlit,2

Time:,20,2,[113][22],ReceiveFlit,2

Time:,20,3,[52][10],ReceiveFlit,1

Time:,20,3,[118][23],ReceiveFlit,2

Time:,20,4,[95][19],ReceiveFlit,2

Time:,20,4,[76][15],ReceiveFlit,1

Time:,20,4,[61][12],ReceiveFlit,1

Time:,20,5,[90][18],ReceiveFlit,2

Time:,20,5,[81][16],ReceiveFlit,1

Time:,20,5,[44][8],ReceiveFlit,0

Time:,20,6,[57][11],ReceiveFlit,1

Time:,20,6,[123][24],ReceiveFlit,2

Time:,20,7,[100][20],ReceiveFlit,2

Time:,20,7,[71][14],ReceiveFlit,1

Time:,20,7,[128][25],ReceiveFlit,2

Time:,20,8,[47][9],ReceiveFlit,1

Time:,20,1,[31][6],RetFlit,0

Time:,20,2,[36][7],RetFlit,0

Time:,20,3,[21][4],RetFlit,0

Time:,20,6,[7][1],RetFlit,0

Time:,20,8,[4][0],RetFlit,0

Time:,20,0,[66][13],InputQueueing,1

Time:,20,0,[12][2],InputQueueing,0

Time:,20,0,[108][21],InputQueueing,2

Time:,20,0,[65][13],SWUpdate,1

Time:,20,0,[10][2],SWUpdate,0

Time:,20,0,[64][12],SWUpdate,1

Time:,20,1,[132][26],InputQueueing,2

Time:,20,1,[130][26],SWUpdate,2

Time:,20,1,[33][6],SWUpdate,0

Time:,20,1,[68][13],SWUpdate,1

Time:,20,1,[63][12],SWUpdate,1

Time:,20,2,[113][22],InputQueueing,2

Time:,20,2,[87][17],SWUpdate,1

Time:,20,2,[38][7],SWUpdate,0

Time:,20,2,[69][13],SWUpdate,1

Time:,20,3,[52][10],InputQueueing,1

Time:,20,3,[118][23],InputQueueing,2

Time:,20,3,[23][4],SWUpdate,0

Time:,20,3,[74][14],SWUpdate,1

Time:,20,3,[9][1],SWUpdate,0

Time:,20,4,[95][19],InputQueueing,2

Time:,20,4,[76][15],InputQueueing,1

Time:,20,4,[61][12],InputQueueing,1

Time:,20,4,[75][15],SWUpdate,1

Time:,20,4,[60][12],SWUpdate,1

Time:,20,4,[91][18],SWUpdate,2

Time:,20,4,[73][14],SWUpdate,1

Time:,20,5,[90][18],InputQueueing,2

Time:,20,5,[81][16],InputQueueing,1

Time:,20,5,[44][8],InputQueueing,0

Time:,20,5,[85][17],VCUpdate,1

Time:,20,5,[80][16],SWUpdate,1

Time:,20,5,[96][19],SWUpdate,2

Time:,20,5,[44][8],SWUpdate,0

Time:,20,6,[57][11],InputQueueing,1

Time:,20,6,[123][24],InputQueueing,2

Time:,20,6,[79][15],SWUpdate,1

Time:,20,6,[14][2],SWUpdate,0

Time:,20,7,[100][20],InputQueueing,2

Time:,20,7,[71][14],InputQueueing,1

Time:,20,7,[128][25],InputQueueing,2

Time:,20,7,[70][14],SWUpdate,1

Time:,20,7,[78][15],SWUpdate,1

Time:,20,7,[84][16],SWUpdate,1

Time:,20,8,[47][9],InputQueueing,1

Time:,20,8,[46][9],SWUpdate,1

Time:,20,8,[101][20],SWUpdate,2

Time:,20,8,[83][16],SWUpdate,1

Time:,20,0,[64][12],SendingFlit,1

Time:,20,0,[65][13],SendingFlit,1

Time:,20,0,[10][2],SendingFlit,0

Time:,20,1,[130][26],SendingFlit,2

Time:,20,1,[68][13],SendingFlit,1

Time:,20,1,[63][12],SendingFlit,1

Time:,20,1,[33][6],SendingFlit,0

Time:,20,2,[69][13],SendingFlit,1

Time:,20,2,[87][17],SendingFlit,1

Time:,20,2,[38][7],SendingFlit,0

Time:,20,3,[74][14],SendingFlit,1

Time:,20,3,[9][1],SendingFlit,0

Time:,20,3,[23][4],SendingFlit,0

Time:,20,4,[91][18],SendingFlit,2

Time:,20,4,[73][14],SendingFlit,1

Time:,20,4,[75][15],SendingFlit,1

Time:,20,4,[60][12],SendingFlit,1

Time:,20,5,[96][19],SendingFlit,2

Time:,20,5,[80][16],SendingFlit,1

Time:,20,5,[44][8],SendingFlit,0

Time:,20,6,[79][15],SendingFlit,1

Time:,20,6,[14][2],SendingFlit,0

Time:,20,7,[84][16],SendingFlit,1

Time:,20,7,[78][15],SendingFlit,1

Time:,20,7,[70][14],SendingFlit,1

Time:,20,8,[101][20],SendingFlit,2

Time:,20,8,[83][16],SendingFlit,1

Time:,20,8,[46][9],SendingFlit,1

Time:,21,0,[67][13],ReceiveFlit,1

Time:,21,0,[13][2],ReceiveFlit,0

Time:,21,1,[110][22],ReceiveFlit,2

Time:,21,1,[105][21],ReceiveFlit,2

Time:,21,1,[133][26],ReceiveFlit,2

Time:,21,3,[53][10],ReceiveFlit,1

Time:,21,3,[55][11],ReceiveFlit,1

Time:,21,4,[54][10],ReceiveFlit,1

Time:,21,4,[115][23],ReceiveFlit,2

Time:,21,4,[77][15],ReceiveFlit,1

Time:,21,4,[62][12],ReceiveFlit,1

Time:,21,5,[49][9],ReceiveFlit,1

Time:,21,5,[82][16],ReceiveFlit,1

Time:,21,5,[86][17],ReceiveFlit,1

Time:,21,6,[58][11],ReceiveFlit,1

Time:,21,6,[50][10],ReceiveFlit,1

Time:,21,7,[59][11],ReceiveFlit,1

Time:,21,7,[120][24],ReceiveFlit,2

Time:,21,7,[72][14],ReceiveFlit,1

Time:,21,8,[125][25],ReceiveFlit,2

Time:,21,8,[48][9],ReceiveFlit,1

Time:,21,4,[135][27],GenFlit,-1

Time:,21,4,[136][27],GenFlit,-1

Time:,21,4,[137][27],GenFlit,-1

Time:,21,4,[138][27],GenFlit,-1

Time:,21,4,[139][27],GenFlit,-1

Time:,21,5,[140][28],GenFlit,-1

Time:,21,5,[141][28],GenFlit,-1

Time:,21,5,[142][28],GenFlit,-1

Time:,21,5,[143][28],GenFlit,-1

Time:,21,5,[144][28],GenFlit,-1

Time:,21,8,[145][29],GenFlit,-1

Time:,21,8,[146][29],GenFlit,-1

Time:,21,8,[147][29],GenFlit,-1

Time:,21,8,[148][29],GenFlit,-1

Time:,21,8,[149][29],GenFlit,-1

Time:,21,1,[32][6],RetFlit,0

Time:,21,2,[37][7],RetFlit,0

Time:,21,3,[22][4],RetFlit,0

Time:,21,4,[19][3],RetFlit,0

Time:,21,6,[8][1],RetFlit,0

Time:,21,7,[29][5],RetFlit,0

Time:,21,8,[45][9],RetFlit,1

Time:,21,0,[67][13],InputQueueing,1

Time:,21,0,[13][2],InputQueueing,0

Time:,21,0,[11][2],SWUpdate,0

Time:,21,0,[106][21],SWUpdate,2

Time:,21,0,[24][4],SWUpdate,0

Time:,21,1,[110][22],InputQueueing,2

Time:,21,1,[105][21],InputQueueing,2

Time:,21,1,[133][26],InputQueueing,2

Time:,21,1,[89][17],SWUpdate,1

Time:,21,2,[111][22],SWUpdate,2

Time:,21,2,[88][17],SWUpdate,1

Time:,21,3,[53][10],InputQueueing,1

Time:,21,3,[55][11],InputQueueing,1

Time:,21,3,[51][10],SWUpdate,1

Time:,21,3,[116][23],SWUpdate,2

Time:,21,4,[54][10],InputQueueing,1

Time:,21,4,[115][23],InputQueueing,2

Time:,21,4,[77][15],InputQueueing,1

Time:,21,4,[62][12],InputQueueing,1

Time:,21,4,[95][19],VCUpdate,2

Time:,21,4,[61][12],SWUpdate,1

Time:,21,4,[92][18],SWUpdate,2

Time:,21,4,[34][6],SWUpdate,0

Time:,21,5,[49][9],InputQueueing,1

Time:,21,5,[82][16],InputQueueing,1

Time:,21,5,[86][17],InputQueueing,1

Time:,21,5,[90][18],VCUpdate,2

Time:,21,5,[85][17],SWUpdate,1

Time:,21,5,[97][19],SWUpdate,2

Time:,21,5,[39][7],SWUpdate,0

Time:,21,6,[58][11],InputQueueing,1

Time:,21,6,[50][10],InputQueueing,1

Time:,21,6,[56][11],SWUpdate,1

Time:,21,6,[121][24],SWUpdate,2

Time:,21,7,[59][11],InputQueueing,1

Time:,21,7,[120][24],InputQueueing,2

Time:,21,7,[72][14],InputQueueing,1

Time:,21,7,[100][20],VCUpdate,2

Time:,21,7,[71][14],SWUpdate,1

Time:,21,7,[126][25],SWUpdate,2

Time:,21,8,[125][25],InputQueueing,2

Time:,21,8,[48][9],InputQueueing,1

Time:,21,8,[47][9],SWUpdate,1

Time:,21,8,[102][20],SWUpdate,2

Time:,21,0,[106][21],SendingFlit,2

Time:,21,0,[24][4],SendingFlit,0

Time:,21,0,[11][2],SendingFlit,0

Time:,21,1,[89][17],SendingFlit,1

Time:,21,2,[111][22],SendingFlit,2

Time:,21,2,[88][17],SendingFlit,1

Time:,21,3,[116][23],SendingFlit,2

Time:,21,3,[51][10],SendingFlit,1

Time:,21,4,[92][18],SendingFlit,2

Time:,21,4,[34][6],SendingFlit,0

Time:,21,4,[61][12],SendingFlit,1

Time:,21,5,[97][19],SendingFlit,2

Time:,21,5,[39][7],SendingFlit,0

Time:,21,5,[85][17],SendingFlit,1

Time:,21,6,[121][24],SendingFlit,2

Time:,21,6,[56][11],SendingFlit,1

Time:,21,7,[126][25],SendingFlit,2

Time:,21,7,[71][14],SendingFlit,1

Time:,21,8,[102][20],SendingFlit,2

Time:,21,8,[47][9],SendingFlit,1

Time:,22,0,[68][13],ReceiveFlit,1

Time:,22,1,[69][13],ReceiveFlit,1

Time:,22,1,[64][12],ReceiveFlit,1

Time:,22,1,[75][15],ReceiveFlit,1

Time:,22,2,[130][26],ReceiveFlit,2

Time:,22,2,[80][16],ReceiveFlit,1

Time:,22,3,[14][2],ReceiveFlit,0

Time:,22,3,[65][13],ReceiveFlit,1

Time:,22,4,[96][19],ReceiveFlit,2

Time:,22,4,[74][14],ReceiveFlit,1

Time:,22,4,[78][15],ReceiveFlit,1

Time:,22,4,[63][12],ReceiveFlit,1

Time:,22,4,[94][18],ReceiveFlit,2

Time:,22,5,[91][18],ReceiveFlit,2

Time:,22,5,[83][16],ReceiveFlit,1

Time:,22,5,[87][17],ReceiveFlit,1

Time:,22,5,[99][19],ReceiveFlit,2

Time:,22,6,[9][1],ReceiveFlit,0

Time:,22,7,[101][20],ReceiveFlit,2

Time:,22,7,[79][15],ReceiveFlit,1

Time:,22,7,[73][14],ReceiveFlit,1

Time:,22,8,[84][16],ReceiveFlit,1

Time:,22,8,[104][20],ReceiveFlit,2

Time:,22,0,[150][30],GenFlit,-1

Time:,22,0,[151][30],GenFlit,-1

Time:,22,0,[152][30],GenFlit,-1

Time:,22,0,[153][30],GenFlit,-1

Time:,22,0,[154][30],GenFlit,-1

Time:,22,2,[155][31],GenFlit,-1

Time:,22,2,[156][31],GenFlit,-1

Time:,22,2,[157][31],GenFlit,-1

Time:,22,2,[158][31],GenFlit,-1

Time:,22,2,[159][31],GenFlit,-1

Time:,22,3,[160][32],GenFlit,-1

Time:,22,3,[161][32],GenFlit,-1

Time:,22,3,[162][32],GenFlit,-1

Time:,22,3,[163][32],GenFlit,-1

Time:,22,3,[164][32],GenFlit,-1

Time:,22,6,[165][33],GenFlit,-1

Time:,22,6,[166][33],GenFlit,-1

Time:,22,6,[167][33],GenFlit,-1

Time:,22,6,[168][33],GenFlit,-1

Time:,22,6,[169][33],GenFlit,-1

Time:,22,7,[170][34],GenFlit,-1

Time:,22,7,[171][34],GenFlit,-1

Time:,22,7,[172][34],GenFlit,-1

Time:,22,7,[173][34],GenFlit,-1

Time:,22,7,[174][34],GenFlit,-1

Time:,22,0,[10][2],RetFlit,0

Time:,22,1,[33][6],RetFlit,0

Time:,22,2,[38][7],RetFlit,0

Time:,22,3,[23][4],RetFlit,0

Time:,22,4,[60][12],RetFlit,1

Time:,22,5,[44][8],RetFlit,0

Time:,22,7,[70][14],RetFlit,1

Time:,22,8,[46][9],RetFlit,1

Time:,22,0,[68][13],InputQueueing,1

Time:,22,0,[66][13],SWUpdate,1

Time:,22,0,[12][2],SWUpdate,0

Time:,22,0,[107][21],SWUpdate,2

Time:,22,1,[69][13],InputQueueing,1

Time:,22,1,[64][12],InputQueueing,1

Time:,22,1,[75][15],InputQueueing,1

Time:,22,1,[110][22],VCUpdate,2

Time:,22,1,[105][21],VCUpdate,2

Time:,22,1,[131][26],SWUpdate,2

Time:,22,2,[130][26],InputQueueing,2

Time:,22,2,[80][16],InputQueueing,1

Time:,22,2,[112][22],SWUpdate,2

Time:,22,3,[14][2],InputQueueing,0

Time:,22,3,[65][13],InputQueueing,1

Time:,22,3,[55][11],VCUpdate,1

Time:,22,3,[52][10],SWUpdate,1

Time:,22,3,[117][23],SWUpdate,2

Time:,22,4,[96][19],InputQueueing,2

Time:,22,4,[74][14],InputQueueing,1

Time:,22,4,[78][15],InputQueueing,1

Time:,22,4,[63][12],InputQueueing,1

Time:,22,4,[94][18],InputQueueing,2

Time:,22,4,[115][23],VCUpdate,2

Time:,22,4,[95][19],SWUpdate,2

Time:,22,4,[76][15],SWUpdate,1

Time:,22,4,[62][12],SWUpdate,1

Time:,22,4,[93][18],SWUpdate,2

Time:,22,5,[91][18],InputQueueing,2

Time:,22,5,[83][16],InputQueueing,1

Time:,22,5,[87][17],InputQueueing,1

Time:,22,5,[99][19],InputQueueing,2

Time:,22,5,[90][18],SWUpdate,2

Time:,22,5,[86][17],SWUpdate,1

Time:,22,5,[81][16],SWUpdate,1

Time:,22,5,[98][19],SWUpdate,2

Time:,22,6,[9][1],InputQueueing,0

Time:,22,6,[50][10],VCUpdate,1

Time:,22,6,[57][11],SWUpdate,1

Time:,22,6,[122][24],SWUpdate,2

Time:,22,6,[9][1],SWUpdate,0

Time:,22,7,[101][20],InputQueueing,2

Time:,22,7,[79][15],InputQueueing,1

Time:,22,7,[73][14],InputQueueing,1

Time:,22,7,[120][24],VCUpdate,2

Time:,22,7,[100][20],SWUpdate,2

Time:,22,7,[72][14],SWUpdate,1

Time:,22,7,[127][25],SWUpdate,2

Time:,22,8,[84][16],InputQueueing,1

Time:,22,8,[104][20],InputQueueing,2

Time:,22,8,[125][25],VCUpdate,2

Time:,22,8,[48][9],SWUpdate,1

Time:,22,8,[103][20],SWUpdate,2

Time:,22,0,[107][21],SendingFlit,2

Time:,22,0,[66][13],SendingFlit,1

Time:,22,0,[12][2],SendingFlit,0

Time:,22,1,[131][26],SendingFlit,2

Time:,22,2,[112][22],SendingFlit,2

Time:,22,3,[117][23],SendingFlit,2

Time:,22,3,[52][10],SendingFlit,1

Time:,22,4,[93][18],SendingFlit,2

Time:,22,4,[95][19],SendingFlit,2

Time:,22,4,[76][15],SendingFlit,1

Time:,22,4,[62][12],SendingFlit,1

Time:,22,5,[98][19],SendingFlit,2

Time:,22,5,[90][18],SendingFlit,2

Time:,22,5,[81][16],SendingFlit,1

Time:,22,5,[86][17],SendingFlit,1

Time:,22,6,[122][24],SendingFlit,2

Time:,22,6,[57][11],SendingFlit,1

Time:,22,6,[9][1],SendingFlit,0

Time:,22,7,[127][25],SendingFlit,2

Time:,22,7,[100][20],SendingFlit,2

Time:,22,7,[72][14],SendingFlit,1

Time:,22,8,[103][20],SendingFlit,2

Time:,22,8,[48][9],SendingFlit,1

Time:,23,0,[109][21],ReceiveFlit,2

Time:,23,1,[111][22],ReceiveFlit,2

Time:,23,1,[106][21],ReceiveFlit,2

Time:,23,1,[34][6],ReceiveFlit,0

Time:,23,2,[89][17],ReceiveFlit,1

Time:,23,2,[39][7],ReceiveFlit,0

Time:,23,2,[114][22],ReceiveFlit,2

Time:,23,3,[56][11],ReceiveFlit,1

Time:,23,3,[24][4],ReceiveFlit,0

Time:,23,3,[119][23],ReceiveFlit,2

Time:,23,4,[97][19],ReceiveFlit,2

Time:,23,4,[116][23],ReceiveFlit,2

Time:,23,4,[135][27],ReceiveFlit,3

Time:,23,5,[92][18],ReceiveFlit,2

Time:,23,5,[88][17],ReceiveFlit,1

Time:,23,5,[140][28],ReceiveFlit,3

Time:,23,6,[51][10],ReceiveFlit,1

Time:,23,6,[124][24],ReceiveFlit,2

Time:,23,7,[102][20],ReceiveFlit,2

Time:,23,7,[121][24],ReceiveFlit,2

Time:,23,7,[129][25],ReceiveFlit,2

Time:,23,8,[126][25],ReceiveFlit,2

Time:,23,8,[145][29],ReceiveFlit,3

Time:,23,1,[175][35],GenFlit,-1

Time:,23,1,[176][35],GenFlit,-1

Time:,23,1,[177][35],GenFlit,-1

Time:,23,1,[178][35],GenFlit,-1

Time:,23,1,[179][35],GenFlit,-1

Time:,23,0,[11][2],RetFlit,0

Time:,23,4,[61][12],RetFlit,1

Time:,23,5,[85][17],RetFlit,1

Time:,23,7,[71][14],RetFlit,1

Time:,23,8,[47][9],RetFlit,1

Time:,23,0,[109][21],InputQueueing,2

Time:,23,0,[67][13],SWUpdate,1

Time:,23,0,[13][2],SWUpdate,0

Time:,23,0,[108][21],SWUpdate,2

Time:,23,1,[111][22],InputQueueing,2

Time:,23,1,[106][21],InputQueueing,2

Time:,23,1,[34][6],InputQueueing,0

Time:,23,1,[75][15],VCUpdate,1

Time:,23,1,[110][22],SWUpdate,2

Time:,23,1,[105][21],SWUpdate,2

Time:,23,1,[132][26],SWUpdate,2

Time:,23,1,[34][6],SWUpdate,0

Time:,23,2,[89][17],InputQueueing,1

Time:,23,2,[39][7],InputQueueing,0

Time:,23,2,[114][22],InputQueueing,2

Time:,23,2,[130][26],VCUpdate,2

Time:,23,2,[80][16],VCUpdate,1

Time:,23,2,[113][22],SWUpdate,2

Time:,23,2,[39][7],SWUpdate,0

Time:,23,3,[56][11],InputQueueing,1

Time:,23,3,[24][4],InputQueueing,0

Time:,23,3,[119][23],InputQueueing,2

Time:,23,3,[65][13],VCUpdate,1

Time:,23,3,[55][11],SWUpdate,1

Time:,23,3,[53][10],SWUpdate,1

Time:,23,3,[118][23],SWUpdate,2

Time:,23,3,[24][4],SWUpdate,0

Time:,23,4,[97][19],InputQueueing,2

Time:,23,4,[116][23],InputQueueing,2

Time:,23,4,[135][27],InputQueueing,3

Time:,23,4,[115][23],SWUpdate,2

Time:,23,4,[77][15],SWUpdate,1

Time:,23,4,[63][12],SWUpdate,1

Time:,23,4,[54][10],SWUpdate,1

Time:,23,5,[92][18],InputQueueing,2

Time:,23,5,[88][17],InputQueueing,1

Time:,23,5,[140][28],InputQueueing,3

Time:,23,5,[87][17],SWUpdate,1

Time:,23,5,[82][16],SWUpdate,1

Time:,23,5,[49][9],SWUpdate,1

Time:,23,6,[51][10],InputQueueing,1

Time:,23,6,[124][24],InputQueueing,2

Time:,23,6,[50][10],SWUpdate,1

Time:,23,6,[58][11],SWUpdate,1

Time:,23,6,[123][24],SWUpdate,2

Time:,23,7,[102][20],InputQueueing,2

Time:,23,7,[121][24],InputQueueing,2

Time:,23,7,[129][25],InputQueueing,2

Time:,23,7,[120][24],SWUpdate,2

Time:,23,7,[73][14],SWUpdate,1

Time:,23,7,[128][25],SWUpdate,2

Time:,23,7,[59][11],SWUpdate,1

Time:,23,8,[126][25],InputQueueing,2

Time:,23,8,[145][29],InputQueueing,3

Time:,23,8,[125][25],SWUpdate,2

Time:,23,0,[108][21],SendingFlit,2

Time:,23,0,[67][13],SendingFlit,1

Time:,23,0,[13][2],SendingFlit,0

Time:,23,1,[132][26],SendingFlit,2

Time:,23,1,[110][22],SendingFlit,2

Time:,23,1,[105][21],SendingFlit,2

Time:,23,1,[34][6],SendingFlit,0

Time:,23,2,[113][22],SendingFlit,2

Time:,23,2,[39][7],SendingFlit,0

Time:,23,3,[118][23],SendingFlit,2

Time:,23,3,[53][10],SendingFlit,1

Time:,23,3,[55][11],SendingFlit,1

Time:,23,3,[24][4],SendingFlit,0

Time:,23,4,[54][10],SendingFlit,1

Time:,23,4,[115][23],SendingFlit,2

Time:,23,4,[77][15],SendingFlit,1

Time:,23,4,[63][12],SendingFlit,1

Time:,23,5,[49][9],SendingFlit,1

Time:,23,5,[82][16],SendingFlit,1

Time:,23,5,[87][17],SendingFlit,1

Time:,23,6,[123][24],SendingFlit,2

Time:,23,6,[58][11],SendingFlit,1

Time:,23,6,[50][10],SendingFlit,1

Time:,23,7,[128][25],SendingFlit,2

Time:,23,7,[59][11],SendingFlit,1

Time:,23,7,[120][24],SendingFlit,2

Time:,23,7,[73][14],SendingFlit,1

Time:,23,8,[125][25],SendingFlit,2

Time:,24,0,[150][30],ReceiveFlit,3

Time:,24,1,[112][22],ReceiveFlit,2

Time:,24,1,[107][21],ReceiveFlit,2

Time:,24,1,[76][15],ReceiveFlit,1

Time:,24,1,[134][26],ReceiveFlit,2

Time:,24,2,[131][26],ReceiveFlit,2

Time:,24,2,[81][16],ReceiveFlit,1

Time:,24,2,[155][31],ReceiveFlit,3

Time:,24,3,[95][19],ReceiveFlit,2

Time:,24,3,[57][11],ReceiveFlit,1

Time:,24,3,[66][13],ReceiveFlit,1

Time:,24,3,[160][32],ReceiveFlit,3

Time:,24,4,[98][19],ReceiveFlit,2

Time:,24,4,[117][23],ReceiveFlit,2

Time:,24,4,[136][27],ReceiveFlit,3

Time:,24,5,[93][18],ReceiveFlit,2

Time:,24,5,[141][28],ReceiveFlit,3

Time:,24,6,[100][20],ReceiveFlit,2

Time:,24,6,[52][10],ReceiveFlit,1

Time:,24,6,[165][33],ReceiveFlit,3

Time:,24,7,[103][20],ReceiveFlit,2

Time:,24,7,[122][24],ReceiveFlit,2

Time:,24,7,[170][34],ReceiveFlit,3

Time:,24,8,[127][25],ReceiveFlit,2

Time:,24,8,[90][18],ReceiveFlit,2

Time:,24,8,[146][29],ReceiveFlit,3

Time:,24,0,[12][2],RetFlit,0

Time:,24,4,[62][12],RetFlit,1

Time:,24,5,[86][17],RetFlit,1

Time:,24,6,[9][1],RetFlit,0

Time:,24,7,[72][14],RetFlit,1

Time:,24,8,[48][9],RetFlit,1

Time:,24,0,[150][30],InputQueueing,3

Time:,24,0,[68][13],SWUpdate,1

Time:,24,1,[112][22],InputQueueing,2

Time:,24,1,[107][21],InputQueueing,2

Time:,24,1,[76][15],InputQueueing,1

Time:,24,1,[134][26],InputQueueing,2

Time:,24,1,[75][15],SWUpdate,1

Time:,24,1,[133][26],SWUpdate,2

Time:,24,1,[69][13],SWUpdate,1

Time:,24,1,[64][12],SWUpdate,1

Time:,24,2,[131][26],InputQueueing,2

Time:,24,2,[81][16],InputQueueing,1

Time:,24,2,[155][31],InputQueueing,3

Time:,24,2,[130][26],SWUpdate,2

Time:,24,2,[80][16],SWUpdate,1

Time:,24,3,[95][19],InputQueueing,2

Time:,24,3,[57][11],InputQueueing,1

Time:,24,3,[66][13],InputQueueing,1

Time:,24,3,[160][32],InputQueueing,3

Time:,24,3,[65][13],SWUpdate,1

Time:,24,3,[14][2],SWUpdate,0

Time:,24,4,[98][19],InputQueueing,2

Time:,24,4,[117][23],InputQueueing,2

Time:,24,4,[136][27],InputQueueing,3

Time:,24,4,[135][27],VCUpdate,3

Time:,24,4,[96][19],SWUpdate,2

Time:,24,4,[78][15],SWUpdate,1

Time:,24,4,[74][14],SWUpdate,1

Time:,24,5,[93][18],InputQueueing,2

Time:,24,5,[141][28],InputQueueing,3

Time:,24,5,[140][28],VCUpdate,3

Time:,24,5,[91][18],SWUpdate,2

Time:,24,5,[88][17],SWUpdate,1

Time:,24,5,[83][16],SWUpdate,1

Time:,24,6,[100][20],InputQueueing,2

Time:,24,6,[52][10],InputQueueing,1

Time:,24,6,[165][33],InputQueueing,3

Time:,24,6,[51][10],SWUpdate,1

Time:,24,7,[103][20],InputQueueing,2

Time:,24,7,[122][24],InputQueueing,2

Time:,24,7,[170][34],InputQueueing,3

Time:,24,7,[101][20],SWUpdate,2

Time:,24,7,[79][15],SWUpdate,1

Time:,24,8,[127][25],InputQueueing,2

Time:,24,8,[90][18],InputQueueing,2

Time:,24,8,[146][29],InputQueueing,3

Time:,24,8,[145][29],VCUpdate,3

Time:,24,8,[84][16],SWUpdate,1

Time:,24,0,[68][13],SendingFlit,1

Time:,24,1,[133][26],SendingFlit,2

Time:,24,1,[69][13],SendingFlit,1

Time:,24,1,[64][12],SendingFlit,1

Time:,24,1,[75][15],SendingFlit,1

Time:,24,2,[130][26],SendingFlit,2

Time:,24,2,[80][16],SendingFlit,1

Time:,24,3,[14][2],SendingFlit,0

Time:,24,3,[65][13],SendingFlit,1

Time:,24,4,[96][19],SendingFlit,2

Time:,24,4,[74][14],SendingFlit,1

Time:,24,4,[78][15],SendingFlit,1

Time:,24,5,[91][18],SendingFlit,2

Time:,24,5,[83][16],SendingFlit,1

Time:,24,5,[88][17],SendingFlit,1

Time:,24,6,[51][10],SendingFlit,1

Time:,24,7,[101][20],SendingFlit,2

Time:,24,7,[79][15],SendingFlit,1

Time:,24,8,[84][16],SendingFlit,1

Time:,25,0,[110][22],ReceiveFlit,2

Time:,25,0,[55][11],ReceiveFlit,1

Time:,25,0,[151][30],ReceiveFlit,3

Time:,25,1,[113][22],ReceiveFlit,2

Time:,25,1,[108][21],ReceiveFlit,2

Time:,25,1,[77][15],ReceiveFlit,1

Time:,25,1,[175][35],ReceiveFlit,3

Time:,25,2,[132][26],ReceiveFlit,2

Time:,25,2,[82][16],ReceiveFlit,1

Time:,25,2,[156][31],ReceiveFlit,3

Time:,25,3,[54][10],ReceiveFlit,1

Time:,25,3,[58][11],ReceiveFlit,1

Time:,25,3,[67][13],ReceiveFlit,1

Time:,25,3,[161][32],ReceiveFlit,3

Time:,25,4,[118][23],ReceiveFlit,2

Time:,25,4,[120][24],ReceiveFlit,2

Time:,25,4,[105][21],ReceiveFlit,2

Time:,25,4,[137][27],ReceiveFlit,3

Time:,25,5,[125][25],ReceiveFlit,2

Time:,25,5,[142][28],ReceiveFlit,3

Time:,25,6,[59][11],ReceiveFlit,1

Time:,25,6,[53][10],ReceiveFlit,1

Time:,25,6,[166][33],ReceiveFlit,3

Time:,25,7,[123][24],ReceiveFlit,2

Time:,25,7,[115][23],ReceiveFlit,2

Time:,25,7,[171][34],ReceiveFlit,3

Time:,25,8,[128][25],ReceiveFlit,2

Time:,25,8,[49][9],ReceiveFlit,1

Time:,25,8,[147][29],ReceiveFlit,3

Time:,25,0,[13][2],RetFlit,0

Time:,25,1,[34][6],RetFlit,0

Time:,25,2,[39][7],RetFlit,0

Time:,25,3,[24][4],RetFlit,0

Time:,25,4,[63][12],RetFlit,1

Time:,25,5,[87][17],RetFlit,1

Time:,25,6,[50][10],RetFlit,1

Time:,25,7,[73][14],RetFlit,1

Time:,25,0,[110][22],InputQueueing,2

Time:,25,0,[55][11],InputQueueing,1

Time:,25,0,[151][30],InputQueueing,3

Time:,25,0,[150][30],VCUpdate,3

Time:,25,1,[113][22],InputQueueing,2

Time:,25,1,[108][21],InputQueueing,2

Time:,25,1,[77][15],InputQueueing,1

Time:,25,1,[175][35],InputQueueing,3

Time:,25,1,[76][15],SWUpdate,1

Time:,25,1,[111][22],SWUpdate,2

Time:,25,1,[106][21],SWUpdate,2

Time:,25,2,[132][26],InputQueueing,2

Time:,25,2,[82][16],InputQueueing,1

Time:,25,2,[156][31],InputQueueing,3

Time:,25,2,[155][31],VCUpdate,3

Time:,25,2,[81][16],SWUpdate,1

Time:,25,2,[89][17],SWUpdate,1

Time:,25,3,[54][10],InputQueueing,1

Time:,25,3,[58][11],InputQueueing,1

Time:,25,3,[67][13],InputQueueing,1

Time:,25,3,[161][32],InputQueueing,3

Time:,25,3,[95][19],VCUpdate,2

Time:,25,3,[160][32],VCUpdate,3

Time:,25,3,[66][13],SWUpdate,1

Time:,25,3,[56][11],SWUpdate,1

Time:,25,4,[118][23],InputQueueing,2

Time:,25,4,[120][24],InputQueueing,2

Time:,25,4,[105][21],InputQueueing,2

Time:,25,4,[137][27],InputQueueing,3

Time:,25,4,[135][27],SWUpdate,3

Time:,25,4,[116][23],SWUpdate,2

Time:,25,4,[97][19],SWUpdate,2

Time:,25,5,[125][25],InputQueueing,2

Time:,25,5,[142][28],InputQueueing,3

Time:,25,5,[140][28],SWUpdate,3

Time:,25,5,[92][18],SWUpdate,2

Time:,25,6,[59][11],InputQueueing,1

Time:,25,6,[53][10],InputQueueing,1

Time:,25,6,[166][33],InputQueueing,3

Time:,25,6,[100][20],VCUpdate,2

Time:,25,6,[165][33],VCUpdate,3

Time:,25,6,[52][10],SWUpdate,1

Time:,25,7,[123][24],InputQueueing,2

Time:,25,7,[115][23],InputQueueing,2

Time:,25,7,[171][34],InputQueueing,3

Time:,25,7,[170][34],VCUpdate,3

Time:,25,7,[121][24],SWUpdate,2

Time:,25,7,[102][20],SWUpdate,2

Time:,25,8,[128][25],InputQueueing,2

Time:,25,8,[49][9],InputQueueing,1

Time:,25,8,[147][29],InputQueueing,3

Time:,25,8,[90][18],VCUpdate,2

Time:,25,8,[145][29],SWUpdate,3

Time:,25,8,[126][25],SWUpdate,2

Time:,25,8,[49][9],SWUpdate,1

Time:,25,1,[111][22],SendingFlit,2

Time:,25,1,[106][21],SendingFlit,2

Time:,25,1,[76][15],SendingFlit,1

Time:,25,2,[89][17],SendingFlit,1

Time:,25,2,[81][16],SendingFlit,1

Time:,25,3,[56][11],SendingFlit,1

Time:,25,3,[66][13],SendingFlit,1

Time:,25,4,[135][27],SendingFlit,3

Time:,25,4,[97][19],SendingFlit,2

Time:,25,4,[116][23],SendingFlit,2

Time:,25,5,[140][28],SendingFlit,3

Time:,25,5,[92][18],SendingFlit,2

Time:,25,6,[52][10],SendingFlit,1

Time:,25,7,[102][20],SendingFlit,2

Time:,25,7,[121][24],SendingFlit,2

Time:,25,8,[145][29],SendingFlit,3

Time:,25,8,[126][25],SendingFlit,2

Time:,25,8,[49][9],SendingFlit,1

Time:,26,0,[69][13],ReceiveFlit,1

Time:,26,0,[14][2],ReceiveFlit,0

Time:,26,0,[152][30],ReceiveFlit,3

Time:,26,1,[78][15],ReceiveFlit,1

Time:,26,1,[176][35],ReceiveFlit,3

Time:,26,2,[133][26],ReceiveFlit,2

Time:,26,2,[83][16],ReceiveFlit,1

Time:,26,2,[157][31],ReceiveFlit,3

Time:,26,3,[96][19],ReceiveFlit,2

Time:,26,3,[68][13],ReceiveFlit,1

Time:,26,3,[162][32],ReceiveFlit,3

Time:,26,4,[79][15],ReceiveFlit,1

Time:,26,4,[64][12],ReceiveFlit,1

Time:,26,4,[138][27],ReceiveFlit,3

Time:,26,5,[84][16],ReceiveFlit,1

Time:,26,5,[130][26],ReceiveFlit,2

Time:,26,5,[143][28],ReceiveFlit,3

Time:,26,6,[101][20],ReceiveFlit,2

Time:,26,6,[167][33],ReceiveFlit,3

Time:,26,7,[74][14],ReceiveFlit,1

Time:,26,7,[172][34],ReceiveFlit,3

Time:,26,8,[91][18],ReceiveFlit,2

Time:,26,8,[148][29],ReceiveFlit,3

Time:,26,1,[75][15],RetFlit,1

Time:,26,2,[80][16],RetFlit,1

Time:,26,3,[65][13],RetFlit,1

Time:,26,5,[88][17],RetFlit,1

Time:,26,6,[51][10],RetFlit,1

Time:,26,0,[69][13],InputQueueing,1

Time:,26,0,[14][2],InputQueueing,0

Time:,26,0,[152][30],InputQueueing,3

Time:,26,0,[110][22],VCUpdate,2

Time:,26,0,[55][11],VCUpdate,1

Time:,26,0,[150][30],SWUpdate,3

Time:,26,0,[14][2],SWUpdate,0

Time:,26,1,[78][15],InputQueueing,1

Time:,26,1,[176][35],InputQueueing,3

Time:,26,1,[175][35],VCUpdate,3

Time:,26,1,[77][15],SWUpdate,1

Time:,26,1,[112][22],SWUpdate,2

Time:,26,1,[107][21],SWUpdate,2

Time:,26,2,[133][26],InputQueueing,2

Time:,26,2,[83][16],InputQueueing,1

Time:,26,2,[157][31],InputQueueing,3

Time:,26,2,[155][31],SWUpdate,3

Time:,26,2,[131][26],SWUpdate,2

Time:,26,2,[82][16],SWUpdate,1

Time:,26,3,[96][19],InputQueueing,2

Time:,26,3,[68][13],InputQueueing,1

Time:,26,3,[162][32],InputQueueing,3

Time:,26,3,[95][19],SWUpdate,2

Time:,26,3,[160][32],SWUpdate,3

Time:,26,3,[67][13],SWUpdate,1

Time:,26,3,[57][11],SWUpdate,1

Time:,26,4,[79][15],InputQueueing,1

Time:,26,4,[64][12],InputQueueing,1

Time:,26,4,[138][27],InputQueueing,3

Time:,26,4,[120][24],VCUpdate,2

Time:,26,4,[105][21],VCUpdate,2

Time:,26,4,[117][23],SWUpdate,2

Time:,26,4,[98][19],SWUpdate,2

Time:,26,4,[94][18],SWUpdate,2

Time:,26,4,[64][12],SWUpdate,1

Time:,26,5,[84][16],InputQueueing,1

Time:,26,5,[130][26],InputQueueing,2

Time:,26,5,[143][28],InputQueueing,3

Time:,26,5,[125][25],VCUpdate,2

Time:,26,5,[93][18],SWUpdate,2

Time:,26,5,[99][19],SWUpdate,2

Time:,26,6,[101][20],InputQueueing,2

Time:,26,6,[167][33],InputQueueing,3

Time:,26,6,[100][20],SWUpdate,2

Time:,26,6,[165][33],SWUpdate,3

Time:,26,6,[53][10],SWUpdate,1

Time:,26,7,[74][14],InputQueueing,1

Time:,26,7,[172][34],InputQueueing,3

Time:,26,7,[115][23],VCUpdate,2

Time:,26,7,[170][34],SWUpdate,3

Time:,26,7,[122][24],SWUpdate,2

Time:,26,7,[103][20],SWUpdate,2

Time:,26,7,[74][14],SWUpdate,1

Time:,26,8,[91][18],InputQueueing,2

Time:,26,8,[148][29],InputQueueing,3

Time:,26,8,[90][18],SWUpdate,2

Time:,26,8,[127][25],SWUpdate,2

Time:,26,8,[104][20],SWUpdate,2

Time:,26,0,[150][30],SendingFlit,3

Time:,26,0,[14][2],SendingFlit,0

Time:,26,1,[112][22],SendingFlit,2

Time:,26,1,[107][21],SendingFlit,2

Time:,26,1,[77][15],SendingFlit,1

Time:,26,2,[155][31],SendingFlit,3

Time:,26,2,[131][26],SendingFlit,2

Time:,26,2,[82][16],SendingFlit,1

Time:,26,3,[160][32],SendingFlit,3

Time:,26,3,[95][19],SendingFlit,2

Time:,26,3,[57][11],SendingFlit,1

Time:,26,3,[67][13],SendingFlit,1

Time:,26,4,[94][18],SendingFlit,2

Time:,26,4,[98][19],SendingFlit,2

Time:,26,4,[117][23],SendingFlit,2

Time:,26,4,[64][12],SendingFlit,1

Time:,26,5,[99][19],SendingFlit,2

Time:,26,5,[93][18],SendingFlit,2

Time:,26,6,[165][33],SendingFlit,3

Time:,26,6,[100][20],SendingFlit,2

Time:,26,6,[53][10],SendingFlit,1

Time:,26,7,[170][34],SendingFlit,3

Time:,26,7,[103][20],SendingFlit,2

Time:,26,7,[122][24],SendingFlit,2

Time:,26,7,[74][14],SendingFlit,1

Time:,26,8,[104][20],SendingFlit,2

Time:,26,8,[127][25],SendingFlit,2

Time:,26,8,[90][18],SendingFlit,2

Time:,27,0,[111][22],ReceiveFlit,2

Time:,27,0,[56][11],ReceiveFlit,1

Time:,27,0,[153][30],ReceiveFlit,3

Time:,27,1,[177][35],ReceiveFlit,3

Time:,27,2,[158][31],ReceiveFlit,3

Time:,27,3,[97][19],ReceiveFlit,2

Time:,27,3,[163][32],ReceiveFlit,3

Time:,27,4,[140][28],ReceiveFlit,3

Time:,27,4,[121][24],ReceiveFlit,2

Time:,27,4,[106][21],ReceiveFlit,2

Time:,27,5,[135][27],ReceiveFlit,3

Time:,27,5,[126][25],ReceiveFlit,2

Time:,27,5,[89][17],ReceiveFlit,1

Time:,27,6,[102][20],ReceiveFlit,2

Time:,27,6,[168][33],ReceiveFlit,3

Time:,27,7,[145][29],ReceiveFlit,3

Time:,27,7,[116][23],ReceiveFlit,2

Time:,27,7,[173][34],ReceiveFlit,3

Time:,27,8,[92][18],ReceiveFlit,2

Time:,27,1,[76][15],RetFlit,1

Time:,27,2,[81][16],RetFlit,1

Time:,27,3,[66][13],RetFlit,1

Time:,27,6,[52][10],RetFlit,1

Time:,27,8,[49][9],RetFlit,1

Time:,27,0,[111][22],InputQueueing,2

Time:,27,0,[56][11],InputQueueing,1

Time:,27,0,[153][30],InputQueueing,3

Time:,27,0,[110][22],SWUpdate,2

Time:,27,0,[55][11],SWUpdate,1

Time:,27,0,[109][21],SWUpdate,2

Time:,27,1,[177][35],InputQueueing,3

Time:,27,1,[175][35],SWUpdate,3

Time:,27,1,[78][15],SWUpdate,1

Time:,27,1,[113][22],SWUpdate,2

Time:,27,1,[108][21],SWUpdate,2

Time:,27,2,[158][31],InputQueueing,3

Time:,27,2,[132][26],SWUpdate,2

Time:,27,2,[83][16],SWUpdate,1

Time:,27,2,[114][22],SWUpdate,2

Time:,27,3,[97][19],InputQueueing,2

Time:,27,3,[163][32],InputQueueing,3

Time:,27,3,[68][13],SWUpdate,1

Time:,27,3,[58][11],SWUpdate,1

Time:,27,3,[119][23],SWUpdate,2

Time:,27,3,[54][10],SWUpdate,1

Time:,27,4,[140][28],InputQueueing,3

Time:,27,4,[121][24],InputQueueing,2

Time:,27,4,[106][21],InputQueueing,2

Time:,27,4,[120][24],SWUpdate,2

Time:,27,4,[105][21],SWUpdate,2

Time:,27,4,[136][27],SWUpdate,3

Time:,27,4,[118][23],SWUpdate,2

Time:,27,5,[135][27],InputQueueing,3

Time:,27,5,[126][25],InputQueueing,2

Time:,27,5,[89][17],InputQueueing,1

Time:,27,5,[130][26],VCUpdate,2

Time:,27,5,[125][25],SWUpdate,2

Time:,27,5,[141][28],SWUpdate,3

Time:,27,5,[89][17],SWUpdate,1

Time:,27,6,[102][20],InputQueueing,2

Time:,27,6,[168][33],InputQueueing,3

Time:,27,6,[124][24],SWUpdate,2

Time:,27,6,[59][11],SWUpdate,1

Time:,27,7,[145][29],InputQueueing,3

Time:,27,7,[116][23],InputQueueing,2

Time:,27,7,[173][34],InputQueueing,3

Time:,27,7,[115][23],SWUpdate,2

Time:,27,7,[123][24],SWUpdate,2

Time:,27,7,[129][25],SWUpdate,2

Time:,27,8,[92][18],InputQueueing,2

Time:,27,8,[91][18],SWUpdate,2

Time:,27,8,[146][29],SWUpdate,3

Time:,27,8,[128][25],SWUpdate,2

Time:,27,0,[109][21],SendingFlit,2

Time:,27,0,[110][22],SendingFlit,2

Time:,27,0,[55][11],SendingFlit,1

Time:,27,1,[175][35],SendingFlit,3

Time:,27,1,[113][22],SendingFlit,2

Time:,27,1,[108][21],SendingFlit,2

Time:,27,1,[78][15],SendingFlit,1

Time:,27,2,[114][22],SendingFlit,2

Time:,27,2,[132][26],SendingFlit,2

Time:,27,2,[83][16],SendingFlit,1

Time:,27,3,[119][23],SendingFlit,2

Time:,27,3,[54][10],SendingFlit,1

Time:,27,3,[58][11],SendingFlit,1

Time:,27,3,[68][13],SendingFlit,1

Time:,27,4,[136][27],SendingFlit,3

Time:,27,4,[118][23],SendingFlit,2

Time:,27,4,[120][24],SendingFlit,2

Time:,27,4,[105][21],SendingFlit,2

Time:,27,5,[141][28],SendingFlit,3

Time:,27,5,[125][25],SendingFlit,2

Time:,27,5,[89][17],SendingFlit,1

Time:,27,6,[124][24],SendingFlit,2

Time:,27,6,[59][11],SendingFlit,1

Time:,27,7,[129][25],SendingFlit,2

Time:,27,7,[123][24],SendingFlit,2

Time:,27,7,[115][23],SendingFlit,2

Time:,27,8,[146][29],SendingFlit,3

Time:,27,8,[128][25],SendingFlit,2

Time:,27,8,[91][18],SendingFlit,2

Time:,28,0,[112][22],ReceiveFlit,2

Time:,28,0,[57][11],ReceiveFlit,1

Time:,28,1,[155][31],ReceiveFlit,3

Time:,28,1,[150][30],ReceiveFlit,3

Time:,28,1,[178][35],ReceiveFlit,3

Time:,28,3,[98][19],ReceiveFlit,2

Time:,28,3,[100][20],ReceiveFlit,2

Time:,28,4,[99][19],ReceiveFlit,2

Time:,28,4,[160][32],ReceiveFlit,3

Time:,28,4,[122][24],ReceiveFlit,2

Time:,28,4,[107][21],ReceiveFlit,2

Time:,28,5,[94][18],ReceiveFlit,2

Time:,28,5,[127][25],ReceiveFlit,2

Time:,28,5,[131][26],ReceiveFlit,2

Time:,28,6,[103][20],ReceiveFlit,2

Time:,28,6,[95][19],ReceiveFlit,2

Time:,28,7,[104][20],ReceiveFlit,2

Time:,28,7,[165][33],ReceiveFlit,3

Time:,28,7,[117][23],ReceiveFlit,2

Time:,28,8,[170][34],ReceiveFlit,3

Time:,28,8,[93][18],ReceiveFlit,2

Time:,28,4,[180][36],GenFlit,-1

Time:,28,4,[181][36],GenFlit,-1

Time:,28,4,[182][36],GenFlit,-1

Time:,28,4,[183][36],GenFlit,-1

Time:,28,4,[184][36],GenFlit,-1

Time:,28,5,[185][37],GenFlit,-1

Time:,28,5,[186][37],GenFlit,-1

Time:,28,5,[187][37],GenFlit,-1

Time:,28,5,[188][37],GenFlit,-1

Time:,28,5,[189][37],GenFlit,-1

Time:,28,8,[190][38],GenFlit,-1

Time:,28,8,[191][38],GenFlit,-1

Time:,28,8,[192][38],GenFlit,-1

Time:,28,8,[193][38],GenFlit,-1

Time:,28,8,[194][38],GenFlit,-1

Time:,28,0,[14][2],RetFlit,0

Time:,28,1,[77][15],RetFlit,1

Time:,28,2,[82][16],RetFlit,1

Time:,28,3,[67][13],RetFlit,1

Time:,28,4,[64][12],RetFlit,1

Time:,28,6,[53][10],RetFlit,1

Time:,28,7,[74][14],RetFlit,1

Time:,28,8,[90][18],RetFlit,2

Time:,28,0,[112][22],InputQueueing,2

Time:,28,0,[57][11],InputQueueing,1

Time:,28,0,[56][11],SWUpdate,1

Time:,28,0,[151][30],SWUpdate,3

Time:,28,0,[69][13],SWUpdate,1

Time:,28,1,[155][31],InputQueueing,3

Time:,28,1,[150][30],InputQueueing,3

Time:,28,1,[178][35],InputQueueing,3

Time:,28,1,[134][26],SWUpdate,2

Time:,28,2,[156][31],SWUpdate,3

Time:,28,2,[133][26],SWUpdate,2

Time:,28,3,[98][19],InputQueueing,2

Time:,28,3,[100][20],InputQueueing,2

Time:,28,3,[96][19],SWUpdate,2

Time:,28,3,[161][32],SWUpdate,3

Time:,28,4,[99][19],InputQueueing,2

Time:,28,4,[160][32],InputQueueing,3

Time:,28,4,[122][24],InputQueueing,2

Time:,28,4,[107][21],InputQueueing,2

Time:,28,4,[140][28],VCUpdate,3

Time:,28,4,[106][21],SWUpdate,2

Time:,28,4,[137][27],SWUpdate,3

Time:,28,4,[79][15],SWUpdate,1

Time:,28,5,[94][18],InputQueueing,2

Time:,28,5,[127][25],InputQueueing,2

Time:,28,5,[131][26],InputQueueing,2

Time:,28,5,[135][27],VCUpdate,3

Time:,28,5,[130][26],SWUpdate,2

Time:,28,5,[142][28],SWUpdate,3

Time:,28,5,[84][16],SWUpdate,1

Time:,28,6,[103][20],InputQueueing,2

Time:,28,6,[95][19],InputQueueing,2

Time:,28,6,[101][20],SWUpdate,2

Time:,28,6,[166][33],SWUpdate,3

Time:,28,7,[104][20],InputQueueing,2

Time:,28,7,[165][33],InputQueueing,3

Time:,28,7,[117][23],InputQueueing,2

Time:,28,7,[145][29],VCUpdate,3

Time:,28,7,[116][23],SWUpdate,2

Time:,28,7,[171][34],SWUpdate,3

Time:,28,8,[170][34],InputQueueing,3

Time:,28,8,[93][18],InputQueueing,2

Time:,28,8,[92][18],SWUpdate,2

Time:,28,8,[147][29],SWUpdate,3

Time:,28,0,[151][30],SendingFlit,3

Time:,28,0,[69][13],SendingFlit,1

Time:,28,0,[56][11],SendingFlit,1

Time:,28,1,[134][26],SendingFlit,2

Time:,28,2,[156][31],SendingFlit,3

Time:,28,2,[133][26],SendingFlit,2

Time:,28,3,[161][32],SendingFlit,3

Time:,28,3,[96][19],SendingFlit,2

Time:,28,4,[137][27],SendingFlit,3

Time:,28,4,[79][15],SendingFlit,1

Time:,28,4,[106][21],SendingFlit,2

Time:,28,5,[142][28],SendingFlit,3

Time:,28,5,[84][16],SendingFlit,1

Time:,28,5,[130][26],SendingFlit,2

Time:,28,6,[166][33],SendingFlit,3

Time:,28,6,[101][20],SendingFlit,2

Time:,28,7,[171][34],SendingFlit,3

Time:,28,7,[116][23],SendingFlit,2

Time:,28,8,[147][29],SendingFlit,3

Time:,28,8,[92][18],SendingFlit,2

Time:,29,0,[113][22],ReceiveFlit,2

Time:,29,0,[58][11],ReceiveFlit,1

Time:,29,1,[114][22],ReceiveFlit,2

Time:,29,1,[109][21],ReceiveFlit,2

Time:,29,1,[120][24],ReceiveFlit,2

Time:,29,2,[175][35],ReceiveFlit,3

Time:,29,2,[125][25],ReceiveFlit,2

Time:,29,3,[59][11],ReceiveFlit,1

Time:,29,3,[110][22],ReceiveFlit,2

Time:,29,4,[141][28],ReceiveFlit,3

Time:,29,4,[119][23],ReceiveFlit,2

Time:,29,4,[123][24],ReceiveFlit,2

Time:,29,4,[108][21],ReceiveFlit,2

Time:,29,4,[139][27],ReceiveFlit,3

Time:,29,5,[136][27],ReceiveFlit,3

Time:,29,5,[128][25],ReceiveFlit,2

Time:,29,5,[132][26],ReceiveFlit,2

Time:,29,5,[144][28],ReceiveFlit,3

Time:,29,6,[54][10],ReceiveFlit,1

Time:,29,7,[146][29],ReceiveFlit,3

Time:,29,7,[124][24],ReceiveFlit,2

Time:,29,7,[118][23],ReceiveFlit,2

Time:,29,8,[129][25],ReceiveFlit,2

Time:,29,8,[149][29],ReceiveFlit,3

Time:,29,0,[195][39],GenFlit,-1

Time:,29,0,[196][39],GenFlit,-1

Time:,29,0,[197][39],GenFlit,-1

Time:,29,0,[198][39],GenFlit,-1

Time:,29,0,[199][39],GenFlit,-1

Time:,29,2,[200][40],GenFlit,-1

Time:,29,2,[201][40],GenFlit,-1

Time:,29,2,[202][40],GenFlit,-1

Time:,29,2,[203][40],GenFlit,-1

Time:,29,2,[204][40],GenFlit,-1

Time:,29,3,[205][41],GenFlit,-1

Time:,29,3,[206][41],GenFlit,-1

Time:,29,3,[207][41],GenFlit,-1

Time:,29,3,[208][41],GenFlit,-1

Time:,29,3,[209][41],GenFlit,-1

Time:,29,6,[210][42],GenFlit,-1

Time:,29,6,[211][42],GenFlit,-1

Time:,29,6,[212][42],GenFlit,-1

Time:,29,6,[213][42],GenFlit,-1

Time:,29,6,[214][42],GenFlit,-1

Time:,29,7,[215][43],GenFlit,-1

Time:,29,7,[216][43],GenFlit,-1

Time:,29,7,[217][43],GenFlit,-1

Time:,29,7,[218][43],GenFlit,-1

Time:,29,7,[219][43],GenFlit,-1

Time:,29,0,[55][11],RetFlit,1

Time:,29,1,[78][15],RetFlit,1

Time:,29,2,[83][16],RetFlit,1

Time:,29,3,[68][13],RetFlit,1

Time:,29,4,[105][21],RetFlit,2

Time:,29,5,[89][17],RetFlit,1

Time:,29,7,[115][23],RetFlit,2

Time:,29,8,[91][18],RetFlit,2

Time:,29,0,[113][22],InputQueueing,2

Time:,29,0,[58][11],InputQueueing,1

Time:,29,0,[111][22],SWUpdate,2

Time:,29,0,[57][11],SWUpdate,1

Time:,29,0,[152][30],SWUpdate,3

Time:,29,1,[114][22],InputQueueing,2

Time:,29,1,[109][21],InputQueueing,2

Time:,29,1,[120][24],InputQueueing,2

Time:,29,1,[155][31],VCUpdate,3

Time:,29,1,[150][30],VCUpdate,3

Time:,29,1,[176][35],SWUpdate,3

Time:,29,2,[175][35],InputQueueing,3

Time:,29,2,[125][25],InputQueueing,2

Time:,29,2,[157][31],SWUpdate,3

Time:,29,3,[59][11],InputQueueing,1

Time:,29,3,[110][22],InputQueueing,2

Time:,29,3,[100][20],VCUpdate,2

Time:,29,3,[97][19],SWUpdate,2

Time:,29,3,[162][32],SWUpdate,3

Time:,29,4,[141][28],InputQueueing,3

Time:,29,4,[119][23],InputQueueing,2

Time:,29,4,[123][24],InputQueueing,2

Time:,29,4,[108][21],InputQueueing,2

Time:,29,4,[139][27],InputQueueing,3

Time:,29,4,[160][32],VCUpdate,3

Time:,29,4,[140][28],SWUpdate,3

Time:,29,4,[121][24],SWUpdate,2

Time:,29,4,[107][21],SWUpdate,2

Time:,29,4,[138][27],SWUpdate,3

Time:,29,5,[136][27],InputQueueing,3

Time:,29,5,[128][25],InputQueueing,2

Time:,29,5,[132][26],InputQueueing,2

Time:,29,5,[144][28],InputQueueing,3

Time:,29,5,[135][27],SWUpdate,3

Time:,29,5,[131][26],SWUpdate,2

Time:,29,5,[126][25],SWUpdate,2

Time:,29,5,[143][28],SWUpdate,3

Time:,29,6,[54][10],InputQueueing,1

Time:,29,6,[95][19],VCUpdate,2

Time:,29,6,[102][20],SWUpdate,2

Time:,29,6,[167][33],SWUpdate,3

Time:,29,6,[54][10],SWUpdate,1

Time:,29,7,[146][29],InputQueueing,3

Time:,29,7,[124][24],InputQueueing,2

Time:,29,7,[118][23],InputQueueing,2

Time:,29,7,[165][33],VCUpdate,3

Time:,29,7,[145][29],SWUpdate,3

Time:,29,7,[117][23],SWUpdate,2

Time:,29,7,[172][34],SWUpdate,3

[...]

Time:,608,6,[3837][767],ReceiveFlit,1

Time:,608,7,[3851][770],ReceiveFlit,1

Time:,608,8,[3827][765],ReceiveFlit,1

Time:,608,1,[3811][762],RetFlit,0

Time:,608,2,[3816][763],RetFlit,0

Time:,608,3,[3801][760],RetFlit,0

Time:,608,6,[3787][757],RetFlit,0

Time:,608,8,[3784][756],RetFlit,0

Time:,608,0,[3846][769],InputQueueing,1

Time:,608,0,[3791][758],InputQueueing,0

Time:,608,0,[3845][769],SWUpdate,1

Time:,608,0,[3790][758],SWUpdate,0

Time:,608,0,[3844][768],SWUpdate,1

Time:,608,1,[3813][762],SWUpdate,0

Time:,608,1,[3848][769],SWUpdate,1

Time:,608,1,[3843][768],SWUpdate,1

Time:,608,2,[3867][773],SWUpdate,1

Time:,608,2,[3818][763],SWUpdate,0

Time:,608,2,[3849][769],SWUpdate,1

Time:,608,3,[3832][766],InputQueueing,1

Time:,608,3,[3803][760],SWUpdate,0

Time:,608,3,[3793][758],SWUpdate,0

Time:,608,3,[3854][770],SWUpdate,1

Time:,608,3,[3789][757],SWUpdate,0

Time:,608,4,[3856][771],InputQueueing,1

Time:,608,4,[3841][768],InputQueueing,1

Time:,608,4,[3855][771],SWUpdate,1

Time:,608,4,[3840][768],SWUpdate,1

Time:,608,4,[3853][770],SWUpdate,1

Time:,608,5,[3861][772],InputQueueing,1

Time:,608,5,[3824][764],InputQueueing,0

Time:,608,5,[3865][773],VCUpdate,1

Time:,608,5,[3860][772],SWUpdate,1

Time:,608,5,[3824][764],SWUpdate,0

Time:,608,6,[3837][767],InputQueueing,1

Time:,608,6,[3859][771],SWUpdate,1

Time:,608,6,[3794][758],SWUpdate,0

Time:,608,7,[3851][770],InputQueueing,1

Time:,608,7,[3850][770],SWUpdate,1

Time:,608,7,[3858][771],SWUpdate,1

Time:,608,7,[3864][772],SWUpdate,1

Time:,608,8,[3827][765],InputQueueing,1

Time:,608,8,[3826][765],SWUpdate,1

Time:,608,8,[3863][772],SWUpdate,1

Time:,608,0,[3844][768],SendingFlit,1

Time:,608,0,[3845][769],SendingFlit,1

Time:,608,0,[3790][758],SendingFlit,0

Time:,608,1,[3848][769],SendingFlit,1

Time:,608,1,[3843][768],SendingFlit,1

Time:,608,1,[3813][762],SendingFlit,0

Time:,608,2,[3849][769],SendingFlit,1

Time:,608,2,[3867][773],SendingFlit,1

Time:,608,2,[3818][763],SendingFlit,0

Time:,608,3,[3854][770],SendingFlit,1

Time:,608,3,[3789][757],SendingFlit,0

Time:,608,3,[3793][758],SendingFlit,0

Time:,608,3,[3803][760],SendingFlit,0

Time:,608,4,[3853][770],SendingFlit,1

Time:,608,4,[3855][771],SendingFlit,1

Time:,608,4,[3840][768],SendingFlit,1

Time:,608,5,[3860][772],SendingFlit,1

Time:,608,5,[3824][764],SendingFlit,0

Time:,608,6,[3859][771],SendingFlit,1

Time:,608,6,[3794][758],SendingFlit,0

Time:,608,7,[3864][772],SendingFlit,1

Time:,608,7,[3858][771],SendingFlit,1

Time:,608,7,[3850][770],SendingFlit,1

Time:,608,8,[3863][772],SendingFlit,1

Time:,608,8,[3826][765],SendingFlit,1

Time:,609,0,[3847][769],ReceiveFlit,1

Time:,609,0,[3792][758],ReceiveFlit,0

Time:,609,3,[3833][766],ReceiveFlit,1

Time:,609,3,[3835][767],ReceiveFlit,1

Time:,609,4,[3834][766],ReceiveFlit,1

Time:,609,4,[3857][771],ReceiveFlit,1

Time:,609,4,[3842][768],ReceiveFlit,1

Time:,609,5,[3829][765],ReceiveFlit,1

Time:,609,5,[3862][772],ReceiveFlit,1

Time:,609,5,[3866][773],ReceiveFlit,1

Time:,609,6,[3838][767],ReceiveFlit,1

Time:,609,6,[3830][766],ReceiveFlit,1

Time:,609,7,[3839][767],ReceiveFlit,1

Time:,609,7,[3852][770],ReceiveFlit,1

Time:,609,8,[3828][765],ReceiveFlit,1

Time:,609,0,[3749][749],RetFlit,3

Time:,609,1,[3812][762],RetFlit,0

Time:,609,2,[3817][763],RetFlit,0

Time:,609,3,[3802][760],RetFlit,0

Time:,609,4,[3799][759],RetFlit,0

Time:,609,6,[3788][757],RetFlit,0

Time:,609,7,[3809][761],RetFlit,0

Time:,609,8,[3825][765],RetFlit,1

Time:,609,0,[3847][769],InputQueueing,1

Time:,609,0,[3792][758],InputQueueing,0

Time:,609,0,[3791][758],SWUpdate,0

Time:,609,0,[3804][760],SWUpdate,0

Time:,609,1,[3869][773],SWUpdate,1

Time:,609,2,[3868][773],SWUpdate,1

Time:,609,3,[3833][766],InputQueueing,1

Time:,609,3,[3835][767],InputQueueing,1

Time:,609,3,[3831][766],SWUpdate,1

Time:,609,4,[3834][766],InputQueueing,1

Time:,609,4,[3857][771],InputQueueing,1

Time:,609,4,[3842][768],InputQueueing,1

Time:,609,4,[3841][768],SWUpdate,1

Time:,609,4,[3814][762],SWUpdate,0

Time:,609,5,[3829][765],InputQueueing,1

Time:,609,5,[3862][772],InputQueueing,1

Time:,609,5,[3866][773],InputQueueing,1

Time:,609,5,[3865][773],SWUpdate,1

Time:,609,5,[3819][763],SWUpdate,0

Time:,609,6,[3838][767],InputQueueing,1

Time:,609,6,[3830][766],InputQueueing,1

Time:,609,6,[3836][767],SWUpdate,1

Time:,609,7,[3839][767],InputQueueing,1

Time:,609,7,[3852][770],InputQueueing,1

Time:,609,7,[3851][770],SWUpdate,1

Time:,609,8,[3828][765],InputQueueing,1

Time:,609,8,[3827][765],SWUpdate,1

Time:,609,0,[3804][760],SendingFlit,0

Time:,609,0,[3791][758],SendingFlit,0

Time:,609,1,[3869][773],SendingFlit,1

Time:,609,2,[3868][773],SendingFlit,1

Time:,609,3,[3831][766],SendingFlit,1

Time:,609,4,[3814][762],SendingFlit,0

Time:,609,4,[3841][768],SendingFlit,1

Time:,609,5,[3819][763],SendingFlit,0

Time:,609,5,[3865][773],SendingFlit,1

Time:,609,6,[3836][767],SendingFlit,1

Time:,609,7,[3851][770],SendingFlit,1

Time:,609,8,[3827][765],SendingFlit,1

Time:,610,0,[3848][769],ReceiveFlit,1

Time:,610,0,[3793][758],ReceiveFlit,0

Time:,610,1,[3849][769],ReceiveFlit,1

Time:,610,1,[3844][768],ReceiveFlit,1

Time:,610,1,[3855][771],ReceiveFlit,1

Time:,610,2,[3860][772],ReceiveFlit,1

Time:,610,3,[3794][758],ReceiveFlit,0

Time:,610,3,[3845][769],ReceiveFlit,1

Time:,610,4,[3854][770],ReceiveFlit,1

Time:,610,4,[3858][771],ReceiveFlit,1

Time:,610,4,[3843][768],ReceiveFlit,1

Time:,610,5,[3863][772],ReceiveFlit,1

Time:,610,5,[3867][773],ReceiveFlit,1

Time:,610,6,[3789][757],ReceiveFlit,0

Time:,610,7,[3859][771],ReceiveFlit,1

Time:,610,7,[3853][770],ReceiveFlit,1

Time:,610,8,[3864][772],ReceiveFlit,1

Time:,610,0,[3790][758],RetFlit,0

Time:,610,1,[3813][762],RetFlit,0

Time:,610,2,[3818][763],RetFlit,0

Time:,610,3,[3803][760],RetFlit,0

Time:,610,4,[3840][768],RetFlit,1

Time:,610,5,[3824][764],RetFlit,0

Time:,610,7,[3850][770],RetFlit,1

Time:,610,8,[3826][765],RetFlit,1

Time:,610,0,[3848][769],InputQueueing,1

Time:,610,0,[3793][758],InputQueueing,0

Time:,610,0,[3846][769],SWUpdate,1

Time:,610,0,[3792][758],SWUpdate,0

Time:,610,1,[3849][769],InputQueueing,1

Time:,610,1,[3844][768],InputQueueing,1

Time:,610,1,[3855][771],InputQueueing,1

Time:,610,2,[3860][772],InputQueueing,1

Time:,610,3,[3794][758],InputQueueing,0

Time:,610,3,[3845][769],InputQueueing,1

Time:,610,3,[3835][767],VCUpdate,1

Time:,610,3,[3832][766],SWUpdate,1

Time:,610,4,[3854][770],InputQueueing,1

Time:,610,4,[3858][771],InputQueueing,1

Time:,610,4,[3843][768],InputQueueing,1

Time:,610,4,[3856][771],SWUpdate,1

Time:,610,4,[3842][768],SWUpdate,1

Time:,610,5,[3863][772],InputQueueing,1

Time:,610,5,[3867][773],InputQueueing,1

Time:,610,5,[3866][773],SWUpdate,1

Time:,610,5,[3861][772],SWUpdate,1

Time:,610,6,[3789][757],InputQueueing,0

Time:,610,6,[3830][766],VCUpdate,1

Time:,610,6,[3837][767],SWUpdate,1

Time:,610,6,[3789][757],SWUpdate,0

Time:,610,7,[3859][771],InputQueueing,1

Time:,610,7,[3853][770],InputQueueing,1

Time:,610,7,[3852][770],SWUpdate,1

Time:,610,8,[3864][772],InputQueueing,1

Time:,610,8,[3828][765],SWUpdate,1

Time:,610,0,[3846][769],SendingFlit,1

Time:,610,0,[3792][758],SendingFlit,0

Time:,610,3,[3832][766],SendingFlit,1

Time:,610,4,[3856][771],SendingFlit,1

Time:,610,4,[3842][768],SendingFlit,1

Time:,610,5,[3861][772],SendingFlit,1

Time:,610,5,[3866][773],SendingFlit,1

Time:,610,6,[3837][767],SendingFlit,1

Time:,610,6,[3789][757],SendingFlit,0

Time:,610,7,[3852][770],SendingFlit,1

Time:,610,8,[3828][765],SendingFlit,1

Time:,611,1,[3814][762],ReceiveFlit,0

Time:,611,2,[3869][773],ReceiveFlit,1

Time:,611,2,[3819][763],ReceiveFlit,0

Time:,611,3,[3836][767],ReceiveFlit,1

Time:,611,3,[3804][760],ReceiveFlit,0

Time:,611,5,[3868][773],ReceiveFlit,1

Time:,611,6,[3831][766],ReceiveFlit,1

Time:,611,0,[3791][758],RetFlit,0

Time:,611,4,[3841][768],RetFlit,1

Time:,611,5,[3865][773],RetFlit,1

Time:,611,7,[3851][770],RetFlit,1

Time:,611,8,[3827][765],RetFlit,1

Time:,611,0,[3847][769],SWUpdate,1

Time:,611,0,[3793][758],SWUpdate,0

Time:,611,1,[3814][762],InputQueueing,0

Time:,611,1,[3855][771],VCUpdate,1

Time:,611,1,[3814][762],SWUpdate,0

Time:,611,2,[3869][773],InputQueueing,1

Time:,611,2,[3819][763],InputQueueing,0

Time:,611,2,[3860][772],VCUpdate,1

Time:,611,2,[3819][763],SWUpdate,0

Time:,611,3,[3836][767],InputQueueing,1

Time:,611,3,[3804][760],InputQueueing,0

Time:,611,3,[3845][769],VCUpdate,1

Time:,611,3,[3835][767],SWUpdate,1

Time:,611,3,[3833][766],SWUpdate,1

Time:,611,3,[3804][760],SWUpdate,0

Time:,611,4,[3857][771],SWUpdate,1

Time:,611,4,[3843][768],SWUpdate,1

Time:,611,4,[3834][766],SWUpdate,1

Time:,611,5,[3868][773],InputQueueing,1

Time:,611,5,[3867][773],SWUpdate,1

Time:,611,5,[3862][772],SWUpdate,1

Time:,611,5,[3829][765],SWUpdate,1

Time:,611,6,[3831][766],InputQueueing,1

Time:,611,6,[3830][766],SWUpdate,1

Time:,611,6,[3838][767],SWUpdate,1

Time:,611,7,[3853][770],SWUpdate,1

Time:,611,7,[3839][767],SWUpdate,1

Time:,611,0,[3847][769],SendingFlit,1

Time:,611,0,[3793][758],SendingFlit,0

Time:,611,1,[3814][762],SendingFlit,0

Time:,611,2,[3819][763],SendingFlit,0

Time:,611,3,[3833][766],SendingFlit,1

Time:,611,3,[3835][767],SendingFlit,1

Time:,611,3,[3804][760],SendingFlit,0

Time:,611,4,[3834][766],SendingFlit,1

Time:,611,4,[3857][771],SendingFlit,1

Time:,611,4,[3843][768],SendingFlit,1

Time:,611,5,[3829][765],SendingFlit,1

Time:,611,5,[3862][772],SendingFlit,1

Time:,611,5,[3867][773],SendingFlit,1

Time:,611,6,[3838][767],SendingFlit,1

Time:,611,6,[3830][766],SendingFlit,1

Time:,611,7,[3839][767],SendingFlit,1

Time:,611,7,[3853][770],SendingFlit,1

Time:,612,1,[3856][771],ReceiveFlit,1

Time:,612,2,[3861][772],ReceiveFlit,1

Time:,612,3,[3837][767],ReceiveFlit,1

Time:,612,3,[3846][769],ReceiveFlit,1

Time:,612,6,[3832][766],ReceiveFlit,1

Time:,612,0,[3792][758],RetFlit,0

Time:,612,4,[3842][768],RetFlit,1

Time:,612,5,[3866][773],RetFlit,1

Time:,612,6,[3789][757],RetFlit,0

Time:,612,7,[3852][770],RetFlit,1

Time:,612,8,[3828][765],RetFlit,1

Time:,612,0,[3848][769],SWUpdate,1

Time:,612,1,[3856][771],InputQueueing,1

Time:,612,1,[3855][771],SWUpdate,1

Time:,612,1,[3849][769],SWUpdate,1

Time:,612,1,[3844][768],SWUpdate,1

Time:,612,2,[3861][772],InputQueueing,1

Time:,612,2,[3860][772],SWUpdate,1

Time:,612,3,[3837][767],InputQueueing,1

Time:,612,3,[3846][769],InputQueueing,1

Time:,612,3,[3845][769],SWUpdate,1

Time:,612,3,[3794][758],SWUpdate,0

Time:,612,4,[3858][771],SWUpdate,1

Time:,612,4,[3854][770],SWUpdate,1

Time:,612,5,[3868][773],SWUpdate,1

Time:,612,5,[3863][772],SWUpdate,1

Time:,612,6,[3832][766],InputQueueing,1

Time:,612,6,[3831][766],SWUpdate,1

Time:,612,7,[3859][771],SWUpdate,1

Time:,612,8,[3864][772],SWUpdate,1

Time:,612,0,[3848][769],SendingFlit,1

Time:,612,1,[3849][769],SendingFlit,1

Time:,612,1,[3844][768],SendingFlit,1

Time:,612,1,[3855][771],SendingFlit,1

Time:,612,2,[3860][772],SendingFlit,1

Time:,612,3,[3794][758],SendingFlit,0

Time:,612,3,[3845][769],SendingFlit,1

Time:,612,4,[3854][770],SendingFlit,1

Time:,612,4,[3858][771],SendingFlit,1

Time:,612,5,[3863][772],SendingFlit,1

Time:,612,5,[3868][773],SendingFlit,1

Time:,612,6,[3831][766],SendingFlit,1

Time:,612,7,[3859][771],SendingFlit,1

Time:,612,8,[3864][772],SendingFlit,1

Time:,613,0,[3835][767],ReceiveFlit,1

Time:,613,1,[3857][771],ReceiveFlit,1

Time:,613,2,[3862][772],ReceiveFlit,1

Time:,613,3,[3834][766],ReceiveFlit,1

Time:,613,3,[3838][767],ReceiveFlit,1

Time:,613,3,[3847][769],ReceiveFlit,1

Time:,613,6,[3839][767],ReceiveFlit,1

Time:,613,6,[3833][766],ReceiveFlit,1

Time:,613,8,[3829][765],ReceiveFlit,1

Time:,613,0,[3793][758],RetFlit,0

Time:,613,1,[3814][762],RetFlit,0

Time:,613,2,[3819][763],RetFlit,0

Time:,613,3,[3804][760],RetFlit,0

Time:,613,4,[3843][768],RetFlit,1

Time:,613,5,[3867][773],RetFlit,1

Time:,613,6,[3830][766],RetFlit,1

Time:,613,7,[3853][770],RetFlit,1

Time:,613,0,[3835][767],InputQueueing,1

Time:,613,1,[3857][771],InputQueueing,1

Time:,613,1,[3856][771],SWUpdate,1

Time:,613,2,[3862][772],InputQueueing,1

Time:,613,2,[3861][772],SWUpdate,1

Time:,613,2,[3869][773],SWUpdate,1

Time:,613,3,[3834][766],InputQueueing,1

Time:,613,3,[3838][767],InputQueueing,1

Time:,613,3,[3847][769],InputQueueing,1

Time:,613,3,[3846][769],SWUpdate,1

Time:,613,3,[3836][767],SWUpdate,1

Time:,613,6,[3839][767],InputQueueing,1

Time:,613,6,[3833][766],InputQueueing,1

Time:,613,6,[3832][766],SWUpdate,1

Time:,613,8,[3829][765],InputQueueing,1

Time:,613,8,[3829][765],SWUpdate,1

Time:,613,1,[3856][771],SendingFlit,1

Time:,613,2,[3869][773],SendingFlit,1

Time:,613,2,[3861][772],SendingFlit,1

Time:,613,3,[3836][767],SendingFlit,1

Time:,613,3,[3846][769],SendingFlit,1

Time:,613,6,[3832][766],SendingFlit,1

Time:,613,8,[3829][765],SendingFlit,1

Time:,614,0,[3849][769],ReceiveFlit,1

Time:,614,0,[3794][758],ReceiveFlit,0

Time:,614,1,[3858][771],ReceiveFlit,1

Time:,614,2,[3863][772],ReceiveFlit,1

Time:,614,3,[3848][769],ReceiveFlit,1

Time:,614,4,[3859][771],ReceiveFlit,1

Time:,614,4,[3844][768],ReceiveFlit,1

Time:,614,5,[3864][772],ReceiveFlit,1

Time:,614,7,[3854][770],ReceiveFlit,1

Time:,614,1,[3855][771],RetFlit,1

Time:,614,2,[3860][772],RetFlit,1

Time:,614,3,[3845][769],RetFlit,1

Time:,614,5,[3868][773],RetFlit,1

Time:,614,6,[3831][766],RetFlit,1

Time:,614,0,[3849][769],InputQueueing,1

Time:,614,0,[3794][758],InputQueueing,0

Time:,614,0,[3835][767],VCUpdate,1

Time:,614,0,[3794][758],SWUpdate,0

Time:,614,1,[3858][771],InputQueueing,1

Time:,614,1,[3857][771],SWUpdate,1

Time:,614,2,[3863][772],InputQueueing,1

Time:,614,2,[3862][772],SWUpdate,1

Time:,614,3,[3848][769],InputQueueing,1

Time:,614,3,[3847][769],SWUpdate,1

Time:,614,3,[3837][767],SWUpdate,1

Time:,614,4,[3859][771],InputQueueing,1

Time:,614,4,[3844][768],InputQueueing,1

Time:,614,4,[3844][768],SWUpdate,1

Time:,614,5,[3864][772],InputQueueing,1

Time:,614,6,[3833][766],SWUpdate,1

Time:,614,7,[3854][770],InputQueueing,1

Time:,614,7,[3854][770],SWUpdate,1

Time:,614,0,[3794][758],SendingFlit,0

Time:,614,1,[3857][771],SendingFlit,1

Time:,614,2,[3862][772],SendingFlit,1

Time:,614,3,[3837][767],SendingFlit,1

Time:,614,3,[3847][769],SendingFlit,1

Time:,614,4,[3844][768],SendingFlit,1

Time:,614,6,[3833][766],SendingFlit,1

Time:,614,7,[3854][770],SendingFlit,1

Time:,615,0,[3836][767],ReceiveFlit,1

Time:,615,5,[3869][773],ReceiveFlit,1

Time:,615,1,[3856][771],RetFlit,1

Time:,615,2,[3861][772],RetFlit,1

Time:,615,3,[3846][769],RetFlit,1

Time:,615,6,[3832][766],RetFlit,1

Time:,615,8,[3829][765],RetFlit,1

Time:,615,0,[3836][767],InputQueueing,1

Time:,615,0,[3835][767],SWUpdate,1

Time:,615,1,[3858][771],SWUpdate,1

Time:,615,2,[3863][772],SWUpdate,1

Time:,615,3,[3848][769],SWUpdate,1

Time:,615,3,[3838][767],SWUpdate,1

Time:,615,3,[3834][766],SWUpdate,1

Time:,615,5,[3869][773],InputQueueing,1

Time:,615,5,[3869][773],SWUpdate,1

Time:,615,6,[3839][767],SWUpdate,1

Time:,615,0,[3835][767],SendingFlit,1

Time:,615,1,[3858][771],SendingFlit,1

Time:,615,2,[3863][772],SendingFlit,1

Time:,615,3,[3834][766],SendingFlit,1

Time:,615,3,[3838][767],SendingFlit,1

Time:,615,3,[3848][769],SendingFlit,1

Time:,615,5,[3869][773],SendingFlit,1

Time:,615,6,[3839][767],SendingFlit,1

Time:,616,0,[3837][767],ReceiveFlit,1

Time:,616,0,[3794][758],RetFlit,0

Time:,616,1,[3857][771],RetFlit,1

Time:,616,2,[3862][772],RetFlit,1

Time:,616,3,[3847][769],RetFlit,1

Time:,616,4,[3844][768],RetFlit,1

Time:,616,6,[3833][766],RetFlit,1

Time:,616,7,[3854][770],RetFlit,1

Time:,616,0,[3837][767],InputQueueing,1

Time:,616,0,[3836][767],SWUpdate,1

Time:,616,0,[3849][769],SWUpdate,1

Time:,616,4,[3859][771],SWUpdate,1

Time:,616,5,[3864][772],SWUpdate,1

Time:,616,0,[3849][769],SendingFlit,1

Time:,616,0,[3836][767],SendingFlit,1

Time:,616,4,[3859][771],SendingFlit,1

Time:,616,5,[3864][772],SendingFlit,1

Time:,617,0,[3838][767],ReceiveFlit,1

Time:,617,3,[3839][767],ReceiveFlit,1

Time:,617,6,[3834][766],ReceiveFlit,1

Time:,617,0,[3835][767],RetFlit,1

Time:,617,1,[3858][771],RetFlit,1

Time:,617,2,[3863][772],RetFlit,1

Time:,617,3,[3848][769],RetFlit,1

Time:,617,5,[3869][773],RetFlit,1

Time:,617,0,[3838][767],InputQueueing,1

Time:,617,0,[3837][767],SWUpdate,1

Time:,617,3,[3839][767],InputQueueing,1

Time:,617,6,[3834][766],InputQueueing,1

Time:,617,6,[3834][766],SWUpdate,1

Time:,617,0,[3837][767],SendingFlit,1

Time:,617,6,[3834][766],SendingFlit,1

Time:,618,1,[3859][771],ReceiveFlit,1

Time:,618,2,[3864][772],ReceiveFlit,1

Time:,618,3,[3849][769],ReceiveFlit,1

Time:,618,0,[3836][767],RetFlit,1

Time:,618,0,[3838][767],SWUpdate,1

Time:,618,1,[3859][771],InputQueueing,1

Time:,618,1,[3859][771],SWUpdate,1

Time:,618,2,[3864][772],InputQueueing,1

Time:,618,2,[3864][772],SWUpdate,1

Time:,618,3,[3849][769],InputQueueing,1

Time:,618,3,[3849][769],SWUpdate,1

Time:,618,0,[3838][767],SendingFlit,1

Time:,618,1,[3859][771],SendingFlit,1

Time:,618,2,[3864][772],SendingFlit,1

Time:,618,3,[3849][769],SendingFlit,1

Time:,619,0,[3837][767],RetFlit,1

Time:,619,6,[3834][766],RetFlit,1

Time:,619,3,[3839][767],SWUpdate,1

Time:,619,3,[3839][767],SendingFlit,1

Time:,620,0,[3838][767],RetFlit,1

Time:,620,1,[3859][771],RetFlit,1

Time:,620,2,[3864][772],RetFlit,1

Time:,620,3,[3849][769],RetFlit,1

Time:,621,0,[3839][767],ReceiveFlit,1

Time:,621,0,[3839][767],InputQueueing,1

Time:,621,0,[3839][767],SWUpdate,1

Time:,621,0,[3839][767],SendingFlit,1

Time:,623,0,[3839][767],RetFlit,1
Time taken is 628 cycles
====== Traffic class 0 ======
Overall minimum packet latency = 220 (1 samples)
Overall average packet latency = 341.413 (1 samples)
Overall maximum packet latency = 470 (1 samples)
Overall minimum network latency = 20 (1 samples)
Overall average network latency = 22.6667 (1 samples)
Overall maximum network latency = 28 (1 samples)
Overall minimum flit latency = 14 (1 samples)
Overall average flit latency = 16.6868 (1 samples)
Overall maximum flit latency = 22 (1 samples)
Overall minimum fragmentation = 2 (1 samples)
Overall average fragmentation = 2 (1 samples)
Overall maximum fragmentation = 2 (1 samples)
Overall minimum injected packet rate = 0.143333 (1 samples)
Overall average injected packet rate = 0.143333 (1 samples)
Overall maximum injected packet rate = 0.143333 (1 samples)
Overall minimum accepted packet rate = 0.143333 (1 samples)
Overall average accepted packet rate = 0.143333 (1 samples)
Overall maximum accepted packet rate = 0.143333 (1 samples)
Overall minimum injected flit rate = 0.713333 (1 samples)
Overall average injected flit rate = 0.716296 (1 samples)
Overall maximum injected flit rate = 0.716667 (1 samples)
Overall minimum accepted flit rate = 0.713333 (1 samples)
Overall average accepted flit rate = 0.714815 (1 samples)
Overall maximum accepted flit rate = 0.716667 (1 samples)
Overall average injected packet size = 4.99742 (1 samples)
Overall average accepted packet size = 4.98708 (1 samples)
Overall average hops = 3.66667 (1 samples)
Total run time 0.18068
L = 2 K = 8.1 M = 2 N = 1
-----------------------------------------
- OCN Power Summary
- Completion Time:         628
- Flit Widths:            128
- Channel Wire Power:      31.531
- Channel Clock Power:     0.409008
- Channel Retiming Power:  0.391756
- Channel Leakage Power:   0.154189
- Input Read Power:        0.660338
- Input Write Power:       0.660338
- Input Leakage Power:     0.0265421
- Switch Power:            3.0849
- Switch Control Power:    1.17947
- Switch Leakage Power:    0.263543
- Output DFF Power:        0.153904
- Output Clk Power:        0.17042
- Output Control Power:    0.0794273
- Total Power:             38.7649
-----------------------------------------

-----------------------------------------
- OCN Area Summary
- Channel Area:  0.0306473
- Switch  Area:  0.0943718
- Input  Area:   0.0283116
- Output  Area:  0.00471859
- Total Area:    0.158049
-----------------------------------------
