make: Nothing to be done for 'all'.
Master: Running timer....
Master: Running SRC....
BEGIN Configuration File: ./examples/mesh88_lat_blackscholes
// $Id$

topology = mesh;
k = 8;
n = 2;

// Routing
routing_function = dor;

// Flow control
num_vcs     = 1;
vc_buf_size = 4;
wait_for_tail_credit = 1;

// Router architecture
vc_allocator = islip;
sw_allocator = islip;
alloc_iters  = 1;

credit_delay   = 1;
routing_delay  = 1;
vc_alloc_delay = 1;
sw_alloc_delay = 1;

input_speedup     = 1;
output_speedup    = 1;
internal_speedup  = 1.0;

vc_busy_when_full = 0;

// Traffic
workload=netrace({/home/sarab/Downloads/BookSim_Benchmark_files/x264_64c_simsmall.tra.bz2,100000000,1,2,1,1,0);

// Simulation
sim_type = workload;

END Configuration File: ./examples/mesh88_lat_blackscholes
Warming up...
===== Time: 10000 =====
Class 0:
Packets read from trace = 174 of 31326528 (0%)
Future packets = 1
Waiting packets = 0
Stalled packets = 160
Packets pending injection = 0
Packets in flight = 3
Minimum packet latency = 287
Average packet latency = 1324.7
Maximum packet latency = 4962
Minimum network latency = 283
Average network latency = 1321.9
Maximum network latency = 4958
Slowest packet = 6
Minimum flit latency = 22
Average flit latency = 273.032
Maximum flit latency = 4949
Slowest flit = 34
Minimum fragmentation = 191
Average fragmentation = 1245.4
Maximum fragmentation = 4896
Minimum injected packet rate = 0 (at node 0)
Average injected packet rate = 2.03125e-05
Maximum injected packet rate = 0.0006 (at node 61)
Minimum accepted packet rate = 0 (at node 0)
Average accepted packet rate = 1.5625e-05
Maximum accepted packet rate = 0.0006 (at node 47)
Minimum injected flit rate = 0 (at node 0)
Average injected flit rate = 0.000101562
Maximum injected flit rate = 0.003 (at node 61)
Minimum accepted flit rate = 0 (at node 0)
Average accepted flit rate = 9.6875e-05
Maximum accepted flit rate = 0.003 (at node 47)
Total number of injected packets = 13
Total number of injected flits = 65
Average injected packet length = 5
Total number of accepted packets = 10
Total number of accepted flits = 62
Average accepted packet length = 6.2
Total in-flight flits = 3 (0 measured)
===== Time: 20000 =====
Class 0:
Packets read from trace = 316 of 31326528 (0%)
Future packets = 1
Waiting packets = 0
Stalled packets = 285
Packets pending injection = 0
Packets in flight = 5
Minimum packet latency = 23
Average packet latency = 1860.28
Maximum packet latency = 9515
Minimum network latency = 22
Average network latency = 1857.76
Maximum network latency = 9515
Slowest packet = 8
Minimum flit latency = 22
Average flit latency = 420.667
Maximum flit latency = 9507
Slowest flit = 44
Minimum fragmentation = 0
Average fragmentation = 1781.4
Maximum fragmentation = 9489
Minimum injected packet rate = 0 (at node 3)
Average injected packet rate = 2.34375e-05
Maximum injected packet rate = 0.00055 (at node 32)
Minimum accepted packet rate = 0 (at node 0)
Average accepted packet rate = 1.95313e-05
Maximum accepted packet rate = 0.00055 (at node 2)
Minimum injected flit rate = 0 (at node 3)
Average injected flit rate = 0.000110938
Maximum injected flit rate = 0.00275 (at node 32)
Minimum accepted flit rate = 0 (at node 0)
Average accepted flit rate = 0.000100781
Maximum accepted flit rate = 0.00295 (at node 2)
Total number of injected packets = 30
Total number of injected flits = 142
Average injected packet length = 4.73333
Total number of accepted packets = 25
Total number of accepted flits = 129
Average accepted packet length = 5.16
Total in-flight flits = 13 (0 measured)
===== Time: 30000 =====
Class 0:
Packets read from trace = 513 of 31326528 (0%)
Future packets = 1
Waiting packets = 0
Stalled packets = 461
Packets pending injection = 0
Packets in flight = 5
Minimum packet latency = 23
Average packet latency = 1474.54
Maximum packet latency = 9515
Minimum network latency = 22
Average network latency = 1471.8
Maximum network latency = 9515
Slowest packet = 8
Minimum flit latency = 22
Average flit latency = 348.769
Maximum flit latency = 9507
Slowest flit = 44
Minimum fragmentation = 0
Average fragmentation = 1395.74
Maximum fragmentation = 9489
Minimum injected packet rate = 0 (at node 3)
Average injected packet rate = 2.65625e-05
Maximum injected packet rate = 0.000766667 (at node 32)
Minimum accepted packet rate = 0 (at node 0)
Average accepted packet rate = 2.39583e-05
Maximum accepted packet rate = 0.000766667 (at node 2)
Minimum injected flit rate = 0 (at node 3)
Average injected flit rate = 0.000128646
Maximum injected flit rate = 0.00383333 (at node 32)
Minimum accepted flit rate = 0 (at node 0)
Average accepted flit rate = 0.000121875
Maximum accepted flit rate = 0.00396667 (at node 2)
Total number of injected packets = 51
Total number of injected flits = 247
Average injected packet length = 4.84314
Total number of accepted packets = 46
Total number of accepted flits = 234
Average accepted packet length = 5.08696
Total in-flight flits = 13 (0 measured)
Warmup ends after 30000 cycles.
Beginning measurements...
===== Time: 40000 =====
Class 0:
Packets read from trace = 696 of 31326528 (0%)
Future packets = 1
Waiting packets = 0
Stalled packets = 630
Packets pending injection = 8
Packets in flight = 6
Minimum packet latency = 538
Average packet latency = 1651.5
Maximum packet latency = 3158
Minimum network latency = 535
Average network latency = 1649.25
Maximum network latency = 3155
Slowest packet = 55
Minimum flit latency = 34
Average flit latency = 408.64
Maximum flit latency = 3146
Slowest flit = 271
Minimum fragmentation = 497
Average fragmentation = 1610.75
Maximum fragmentation = 3117
Minimum injected packet rate = 0 (at node 0)
Average injected packet rate = 9.375e-06
Maximum injected packet rate = 0.0005 (at node 63)
Minimum accepted packet rate = 0 (at node 0)
Average accepted packet rate = 7.8125e-06
Maximum accepted packet rate = 0.0004 (at node 61)
Minimum injected flit rate = 0 (at node 0)
Average injected flit rate = 4.53125e-05
Maximum injected flit rate = 0.0025 (at node 63)
Minimum accepted flit rate = 0 (at node 0)
Average accepted flit rate = 3.90625e-05
Maximum accepted flit rate = 0.0024 (at node 61)
Total number of injected packets = 6
Total number of injected flits = 29
Average injected packet length = 4.83333
Total number of accepted packets = 5
Total number of accepted flits = 25
Average accepted packet length = 5
Total in-flight flits = 18 (6 measured)
===== Time: 50000 =====
Class 0:
Packets read from trace = 860 of 31326528 (0%)
Future packets = 1
Waiting packets = 0
Stalled packets = 785
Packets pending injection = 15
Packets in flight = 8
Minimum packet latency = 538
Average packet latency = 1651.5
Maximum packet latency = 3158
Minimum network latency = 535
Average network latency = 1649.25
Maximum network latency = 3155
Slowest packet = 55
Minimum flit latency = 34
Average flit latency = 4670.21
Maximum flit latency = 31306
Slowest flit = 66
Minimum fragmentation = 497
Average fragmentation = 1610.75
Maximum fragmentation = 3117
Minimum injected packet rate = 0 (at node 0)
Average injected packet rate = 6.25e-06
Maximum injected packet rate = 0.00025 (at node 63)
Minimum accepted packet rate = 0 (at node 0)
Average accepted packet rate = 3.90625e-06
Maximum accepted packet rate = 0.0002 (at node 61)
Minimum injected flit rate = 0 (at node 0)
Average injected flit rate = 3.04687e-05
Maximum injected flit rate = 0.00125 (at node 63)
Minimum accepted flit rate = 0 (at node 0)
Average accepted flit rate = 2.26562e-05
Maximum accepted flit rate = 0.0012 (at node 61)
Total number of injected packets = 8
Total number of injected flits = 39
Average injected packet length = 4.875
Total number of accepted packets = 5
Total number of accepted flits = 29
Average accepted packet length = 5.8
Total in-flight flits = 24 (16 measured)
===== Time: 60000 =====
Class 0:
Packets read from trace = 1036 of 31326528 (0%)
Future packets = 1
Waiting packets = 0
Stalled packets = 939
Packets pending injection = 29
Packets in flight = 13
Minimum packet latency = 538
Average packet latency = 3870
Maximum packet latency = 12744
Minimum network latency = 535
Average network latency = 3867.6
Maximum network latency = 12741
Slowest packet = 56
Minimum flit latency = 34
Average flit latency = 6144.48
Maximum flit latency = 44487
Slowest flit = 69
Minimum fragmentation = 497
Average fragmentation = 3829.2
Maximum fragmentation = 12703
Minimum injected packet rate = 0 (at node 0)
Average injected packet rate = 7.29167e-06
Maximum injected packet rate = 0.0002 (at node 63)
Minimum accepted packet rate = 0 (at node 0)
Average accepted packet rate = 4.16667e-06
Maximum accepted packet rate = 0.000166667 (at node 61)
Minimum injected flit rate = 0 (at node 0)
Average injected flit rate = 3.48958e-05
Maximum injected flit rate = 0.001 (at node 63)
Minimum accepted flit rate = 0 (at node 0)
Average accepted flit rate = 2.29167e-05
Maximum accepted flit rate = 0.000966667 (at node 61)
Total number of injected packets = 14
Total number of injected flits = 67
Average injected packet length = 4.78571
Total number of accepted packets = 8
Total number of accepted flits = 44
Average accepted packet length = 5.5
Total in-flight flits = 49 (43 measured)
===== Time: 70000 =====
Class 0:
Packets read from trace = 1173 of 31326528 (0%)
Future packets = 1
Waiting packets = 0
Stalled packets = 1061
Packets pending injection = 42
Packets in flight = 14
Minimum packet latency = 538
Average packet latency = 6128.17
Maximum packet latency = 17419
Minimum network latency = 535
Average network latency = 6125.67
Maximum network latency = 17416
Slowest packet = 60
Minimum flit latency = 34
Average flit latency = 7249.71
Maximum flit latency = 44487
Slowest flit = 69
Minimum fragmentation = 497
Average fragmentation = 6087.33
Maximum fragmentation = 17378
Minimum injected packet rate = 0 (at node 0)
Average injected packet rate = 6.25e-06
Maximum injected packet rate = 0.000175 (at node 63)
Minimum accepted packet rate = 0 (at node 0)
Average accepted packet rate = 3.51562e-06
Maximum accepted packet rate = 0.00015 (at node 61)
Minimum injected flit rate = 0 (at node 0)
Average injected flit rate = 3.00781e-05
Maximum injected flit rate = 0.000875 (at node 63)
Minimum accepted flit rate = 0 (at node 0)
Average accepted flit rate = 1.91406e-05
Maximum accepted flit rate = 0.00075 (at node 61)
Total number of injected packets = 16
Total number of injected flits = 77
Average injected packet length = 4.8125
Total number of accepted packets = 9
Total number of accepted flits = 49
Average accepted packet length = 5.44444
Total in-flight flits = 54 (48 measured)
===== Time: 80000 =====
Class 0:
Packets read from trace = 1247 of 31326528 (0%)
Future packets = 1
Waiting packets = 1
Stalled packets = 1126
Packets pending injection = 50
Packets in flight = 14
Minimum packet latency = 538
Average packet latency = 6128.17
Maximum packet latency = 17419
Minimum network latency = 535
Average network latency = 6125.67
Maximum network latency = 17416
Slowest packet = 60
Minimum flit latency = 34
Average flit latency = 7249.71
Maximum flit latency = 44487
Slowest flit = 69
Minimum fragmentation = 497
Average fragmentation = 6087.33
Maximum fragmentation = 17378
Minimum injected packet rate = 0 (at node 0)
Average injected packet rate = 5e-06
Maximum injected packet rate = 0.00014 (at node 63)
Minimum accepted packet rate = 0 (at node 0)
Average accepted packet rate = 2.8125e-06
Maximum accepted packet rate = 0.00012 (at node 61)
Minimum injected flit rate = 0 (at node 0)
Average injected flit rate = 2.40625e-05
Maximum injected flit rate = 0.0007 (at node 63)
Minimum accepted flit rate = 0 (at node 0)
Average accepted flit rate = 1.53125e-05
Maximum accepted flit rate = 0.0006 (at node 61)
Total number of injected packets = 16
Total number of injected flits = 77
Average injected packet length = 4.8125
Total number of accepted packets = 9
Total number of accepted flits = 49
Average accepted packet length = 5.44444
Total in-flight flits = 54 (48 measured)
===== Time: 90000 =====
Class 0:
Packets read from trace = 1472 of 31326528 (0%)
Future packets = 1
Waiting packets = 0
Stalled packets = 1315
Packets pending injection = 82
Packets in flight = 17
Minimum packet latency = 538
Average packet latency = 8408.86
Maximum packet latency = 22093
Minimum network latency = 535
Average network latency = 8406.71
Maximum network latency = 22093
Slowest packet = 66
Minimum flit latency = 34
Average flit latency = 11950
Maximum flit latency = 65500
Slowest flit = 78
Minimum fragmentation = 497
Average fragmentation = 8361.29
Maximum fragmentation = 22005
Minimum injected packet rate = 0 (at node 4)
Average injected packet rate = 5.20833e-06
Maximum injected packet rate = 0.000116667 (at node 63)
Minimum accepted packet rate = 0 (at node 0)
Average accepted packet rate = 2.86458e-06
Maximum accepted packet rate = 0.0001 (at node 61)
Minimum injected flit rate = 0 (at node 4)
Average injected flit rate = 2.52604e-05
Maximum injected flit rate = 0.000583333 (at node 63)
Minimum accepted flit rate = 0 (at node 0)
Average accepted flit rate = 1.53646e-05
Maximum accepted flit rate = 0.0005 (at node 61)
Total number of injected packets = 20
Total number of injected flits = 97
Average injected packet length = 4.85
Total number of accepted packets = 11
Total number of accepted flits = 59
Average accepted packet length = 5.36364
Total in-flight flits = 69 (68 measured)
===== Time: 100000 =====
Class 0:
Packets read from trace = 1693 of 31326528 (0%)
Future packets = 1
Waiting packets = 0
Stalled packets = 1502
Packets pending injection = 112
Packets in flight = 21
Minimum packet latency = 538
Average packet latency = 8408.86
Maximum packet latency = 22093
Minimum network latency = 535
Average network latency = 8406.71
Maximum network latency = 22093
Slowest packet = 66
Minimum flit latency = 34
Average flit latency = 11950
Maximum flit latency = 65500
Slowest flit = 78
Minimum fragmentation = 497
Average fragmentation = 8361.29
Maximum fragmentation = 22005
Minimum injected packet rate = 0 (at node 4)
Average injected packet rate = 5.13393e-06
Maximum injected packet rate = 0.0001 (at node 63)
Minimum accepted packet rate = 0 (at node 0)
Average accepted packet rate = 2.45536e-06
Maximum accepted packet rate = 8.57143e-05 (at node 61)
Minimum injected flit rate = 0 (at node 4)
Average injected flit rate = 2.47768e-05
Maximum injected flit rate = 0.0005 (at node 63)
Minimum accepted flit rate = 0 (at node 0)
Average accepted flit rate = 1.31696e-05
Maximum accepted flit rate = 0.000428571 (at node 61)
Total number of injected packets = 23
Total number of injected flits = 111
Average injected packet length = 4.82609
Total number of accepted packets = 11
Total number of accepted flits = 59
Average accepted packet length = 5.36364
Total in-flight flits = 89 (88 measured)
===== Time: 110000 =====
Class 0:
Packets read from trace = 1911 of 31326528 (0%)
Future packets = 1
Waiting packets = 0
Stalled packets = 1693
Packets pending injection = 139
Packets in flight = 21
Minimum packet latency = 538
Average packet latency = 8408.86
Maximum packet latency = 22093
Minimum network latency = 535
Average network latency = 8406.71
Maximum network latency = 22093
Slowest packet = 66
Minimum flit latency = 34
Average flit latency = 11950
Maximum flit latency = 65500
Slowest flit = 78
Minimum fragmentation = 497
Average fragmentation = 8361.29
Maximum fragmentation = 22005
Minimum injected packet rate = 0 (at node 4)
Average injected packet rate = 4.49219e-06
Maximum injected packet rate = 8.75e-05 (at node 63)
Minimum accepted packet rate = 0 (at node 0)
Average accepted packet rate = 2.14844e-06
Maximum accepted packet rate = 7.5e-05 (at node 61)
Minimum injected flit rate = 0 (at node 4)
Average injected flit rate = 2.16797e-05
Maximum injected flit rate = 0.0004375 (at node 63)
Minimum accepted flit rate = 0 (at node 0)
Average accepted flit rate = 1.15234e-05
Maximum accepted flit rate = 0.000375 (at node 61)
Total number of injected packets = 23
Total number of injected flits = 111
Average injected packet length = 4.82609
Total number of accepted packets = 11
Total number of accepted flits = 59
Average accepted packet length = 5.36364
Total in-flight flits = 89 (88 measured)
===== Time: 120000 =====
Class 0:
Packets read from trace = 2079 of 31326528 (0%)
Future packets = 1
Waiting packets = 0
Stalled packets = 1835
Packets pending injection = 165
Packets in flight = 21
Minimum packet latency = 538
Average packet latency = 8408.86
Maximum packet latency = 22093
Minimum network latency = 535
Average network latency = 8406.71
Maximum network latency = 22093
Slowest packet = 66
Minimum flit latency = 34
Average flit latency = 11950
Maximum flit latency = 65500
Slowest flit = 78
Minimum fragmentation = 497
Average fragmentation = 8361.29
Maximum fragmentation = 22005
Minimum injected packet rate = 0 (at node 4)
Average injected packet rate = 3.99306e-06
Maximum injected packet rate = 7.77778e-05 (at node 63)
Minimum accepted packet rate = 0 (at node 0)
Average accepted packet rate = 1.90972e-06
Maximum accepted packet rate = 6.66667e-05 (at node 61)
Minimum injected flit rate = 0 (at node 4)
Average injected flit rate = 1.92708e-05
Maximum injected flit rate = 0.000388889 (at node 63)
Minimum accepted flit rate = 0 (at node 0)
Average accepted flit rate = 1.02431e-05
Maximum accepted flit rate = 0.000333333 (at node 61)
Total number of injected packets = 23
Total number of injected flits = 111
Average injected packet length = 4.82609
Total number of accepted packets = 11
Total number of accepted flits = 59
Average accepted packet length = 5.36364
Total in-flight flits = 89 (88 measured)
===== Time: 130000 =====
Class 0:
Packets read from trace = 2170 of 31326528 (0%)
Future packets = 1
Waiting packets = 0
Stalled packets = 1923
Packets pending injection = 168
Packets in flight = 21
Minimum packet latency = 538
Average packet latency = 8408.86
Maximum packet latency = 22093
Minimum network latency = 535
Average network latency = 8406.71
Maximum network latency = 22093
Slowest packet = 66
Minimum flit latency = 34
Average flit latency = 11950
Maximum flit latency = 65500
Slowest flit = 78
Minimum fragmentation = 497
Average fragmentation = 8361.29
Maximum fragmentation = 22005
Minimum injected packet rate = 0 (at node 4)
Average injected packet rate = 3.59375e-06
Maximum injected packet rate = 7e-05 (at node 63)
Minimum accepted packet rate = 0 (at node 0)
Average accepted packet rate = 1.71875e-06
Maximum accepted packet rate = 6e-05 (at node 61)
Minimum injected flit rate = 0 (at node 4)
Average injected flit rate = 1.73438e-05
Maximum injected flit rate = 0.00035 (at node 63)
Minimum accepted flit rate = 0 (at node 0)
Average accepted flit rate = 9.21875e-06
Maximum accepted flit rate = 0.0003 (at node 61)
Total number of injected packets = 23
Total number of injected flits = 111
Average injected packet length = 4.82609
Total number of accepted packets = 11
Total number of accepted flits = 59
Average accepted packet length = 5.36364
Total in-flight flits = 89 (88 measured)
Completed measurements after 130000 cycles.
Draining remaining packets ...
Class 0:
Remaining flits: 71 257 258 259 260 261 281 282 283 284 [...] (88 flits)
Measured flits: 257 258 259 260 261 281 282 283 284 285 [...] (87 flits)
Class 0:
Remaining flits: 71 257 258 259 260 261 281 282 283 284 [...] (87 flits)
Measured flits: 257 258 259 260 261 281 282 283 284 285 [...] (86 flits)
Class 0:
Remaining flits: 71 257 258 259 260 261 281 282 283 284 [...] (80 flits)
Measured flits: 257 258 259 260 261 281 282 283 284 285 [...] (79 flits)
Class 0:
Remaining flits: 71 257 258 259 260 261 281 282 283 284 [...] (72 flits)
Measured flits: 257 258 259 260 261 281 282 283 284 285 [...] (71 flits)
Class 0:
Remaining flits: 71 257 258 259 260 261 282 283 284 285 [...] (71 flits)
Measured flits: 257 258 259 260 261 282 283 284 285 286 [...] (70 flits)
Class 0:
Remaining flits: 257 258 259 260 261 282 283 284 285 286 [...] (70 flits)
Measured flits: 257 258 259 260 261 282 283 284 285 286 [...] (70 flits)
Class 0:
Remaining flits: 257 258 259 260 261 282 283 284 285 286 [...] (69 flits)
Measured flits: 257 258 259 260 261 282 283 284 285 286 [...] (69 flits)
Class 0:
Remaining flits: 257 258 259 260 261 282 283 284 285 286 [...] (60 flits)
Measured flits: 257 258 259 260 261 282 283 284 285 286 [...] (60 flits)
Class 0:
Remaining flits: 260 261 282 283 284 285 286 287 288 289 [...] (52 flits)
Measured flits: 260 261 282 283 284 285 286 287 288 289 [...] (52 flits)
Class 0:
Remaining flits: 261 282 283 284 285 286 287 288 289 290 [...] (50 flits)
Measured flits: 261 282 283 284 285 286 287 288 289 290 [...] (50 flits)
Class 0:
Remaining flits: 261 282 283 284 285 286 287 288 289 290 [...] (46 flits)
Measured flits: 261 282 283 284 285 286 287 288 289 290 [...] (46 flits)
Class 0:
Remaining flits: 261 282 283 284 285 286 287 288 289 290 [...] (45 flits)
Measured flits: 261 282 283 284 285 286 287 288 289 290 [...] (45 flits)
Class 0:
Remaining flits: 261 282 283 284 285 286 287 288 289 290 [...] (41 flits)
Measured flits: 261 282 283 284 285 286 287 288 289 290 [...] (41 flits)
Class 0:
Remaining flits: 261 282 283 284 285 286 287 288 289 290 [...] (41 flits)
Measured flits: 261 282 283 284 285 286 287 288 289 290 [...] (41 flits)
Class 0:
Remaining flits: 261 282 283 284 285 286 287 288 289 290 [...] (41 flits)
Measured flits: 261 282 283 284 285 286 287 288 289 290 [...] (41 flits)
Class 0:
Remaining flits: 261 282 283 284 285 286 287 288 289 290 [...] (41 flits)
Measured flits: 261 282 283 284 285 286 287 288 289 290 [...] (41 flits)
Class 0:
Remaining flits: 261 282 283 284 285 286 287 288 289 290 [...] (41 flits)
Measured flits: 261 282 283 284 285 286 287 288 289 290 [...] (41 flits)
Class 0:
Remaining flits: 261 282 283 284 285 286 287 288 289 290 [...] (41 flits)
Measured flits: 261 282 283 284 285 286 287 288 289 290 [...] (41 flits)
Class 0:
Remaining flits: 261 282 283 284 285 286 287 288 289 290 [...] (41 flits)
Measured flits: 261 282 283 284 285 286 287 288 289 290 [...] (41 flits)
Class 0:
Remaining flits: 261 282 283 284 285 286 287 288 289 290 [...] (41 flits)
Measured flits: 261 282 283 284 285 286 287 288 289 290 [...] (41 flits)
Class 0:
Remaining flits: 261 282 283 284 285 286 287 288 289 290 [...] (41 flits)
Measured flits: 261 282 283 284 285 286 287 288 289 290 [...] (41 flits)
Class 0:
Remaining flits: 261 282 283 284 285 286 287 288 289 290 [...] (41 flits)
Measured flits: 261 282 283 284 285 286 287 288 289 290 [...] (41 flits)
Class 0:
Remaining flits: 261 282 283 284 285 286 287 288 289 290 [...] (41 flits)
Measured flits: 261 282 283 284 285 286 287 288 289 290 [...] (41 flits)
Class 0:
Remaining flits: 261 282 283 284 285 286 287 288 289 290 [...] (41 flits)
Measured flits: 261 282 283 284 285 286 287 288 289 290 [...] (41 flits)
Class 0:
Remaining flits: 261 282 283 284 285 286 287 288 289 290 [...] (41 flits)
Measured flits: 261 282 283 284 285 286 287 288 289 290 [...] (41 flits)
Class 0:
Remaining flits: 261 282 283 284 285 286 287 288 289 290 [...] (41 flits)
Measured flits: 261 282 283 284 285 286 287 288 289 290 [...] (41 flits)
Class 0:
Remaining flits: 261 282 283 284 285 286 287 288 289 290 [...] (41 flits)
Measured flits: 261 282 283 284 285 286 287 288 289 290 [...] (41 flits)
Class 0:
Remaining flits: 261 282 283 284 285 286 287 288 289 290 [...] (41 flits)
Measured flits: 261 282 283 284 285 286 287 288 289 290 [...] (41 flits)
Class 0:
Remaining flits: 261 282 283 284 285 286 287 288 289 290 [...] (41 flits)
Measured flits: 261 282 283 284 285 286 287 288 289 290 [...] (41 flits)
Class 0:
Remaining flits: 261 282 283 284 285 286 287 288 289 290 [...] (41 flits)
Measured flits: 261 282 283 284 285 286 287 288 289 290 [...] (41 flits)
Class 0:
Remaining flits: 261 282 283 284 285 286 287 288 289 290 [...] (41 flits)
Measured flits: 261 282 283 284 285 286 287 288 289 290 [...] (41 flits)
Class 0:
Remaining flits: 261 282 283 284 285 286 287 288 289 290 [...] (41 flits)
Measured flits: 261 282 283 284 285 286 287 288 289 290 [...] (41 flits)
Class 0:
Remaining flits: 261 282 283 284 285 286 287 288 289 290 [...] (41 flits)
Measured flits: 261 282 283 284 285 286 287 288 289 290 [...] (41 flits)
Class 0:
Remaining flits: 261 282 283 284 285 286 287 288 289 290 [...] (41 flits)
Measured flits: 261 282 283 284 285 286 287 288 289 290 [...] (41 flits)
Class 0:
Remaining flits: 261 282 283 284 285 286 287 288 289 290 [...] (41 flits)
Measured flits: 261 282 283 284 285 286 287 288 289 290 [...] (41 flits)
Class 0:
Remaining flits: 261 282 283 284 285 286 287 288 289 290 [...] (41 flits)
Measured flits: 261 282 283 284 285 286 287 288 289 290 [...] (41 flits)
Class 0:
Remaining flits: 261 282 283 284 285 286 287 288 289 290 [...] (41 flits)
Measured flits: 261 282 283 284 285 286 287 288 289 290 [...] (41 flits)
Class 0:
Remaining flits: 261 282 283 284 285 286 287 288 289 290 [...] (41 flits)
Measured flits: 261 282 283 284 285 286 287 288 289 290 [...] (41 flits)
Class 0:
Remaining flits: 261 282 283 284 285 286 287 288 289 290 [...] (41 flits)
Measured flits: 261 282 283 284 285 286 287 288 289 290 [...] (41 flits)
Class 0:
Remaining flits: 261 282 283 284 285 286 287 288 289 290 [...] (41 flits)
Measured flits: 261 282 283 284 285 286 287 288 289 290 [...] (41 flits)
Class 0:
Remaining flits: 261 282 283 284 285 286 287 288 289 290 [...] (41 flits)
Measured flits: 261 282 283 284 285 286 287 288 289 290 [...] (41 flits)
Class 0:
Remaining flits: 261 282 283 284 285 286 287 288 289 290 [...] (41 flits)
Measured flits: 261 282 283 284 285 286 287 288 289 290 [...] (41 flits)
Class 0:
Remaining flits: 261 282 283 284 285 286 287 288 289 290 [...] (41 flits)
Measured flits: 261 282 283 284 285 286 287 288 289 290 [...] (41 flits)
Class 0:
Remaining flits: 261 282 283 284 285 286 287 288 289 290 [...] (41 flits)
Measured flits: 261 282 283 284 285 286 287 288 289 290 [...] (41 flits)
Class 0:
Remaining flits: 261 282 283 284 285 286 287 288 289 290 [...] (41 flits)
Measured flits: 261 282 283 284 285 286 287 288 289 290 [...] (41 flits)
Class 0:
Remaining flits: 261 282 283 284 285 286 287 288 289 290 [...] (41 flits)
Measured flits: 261 282 283 284 285 286 287 288 289 290 [...] (41 flits)
Class 0:
Remaining flits: 261 282 283 284 285 286 287 288 289 290 [...] (41 flits)
Measured flits: 261 282 283 284 285 286 287 288 289 290 [...] (41 flits)
Class 0:
Remaining flits: 261 282 283 284 285 286 287 288 289 290 [...] (41 flits)
Measured flits: 261 282 283 284 285 286 287 288 289 290 [...] (41 flits)
Class 0:
Remaining flits: 261 282 283 284 285 286 287 288 289 290 [...] (41 flits)
Measured flits: 261 282 283 284 285 286 287 288 289 290 [...] (41 flits)
Class 0:
Remaining flits: 261 282 283 284 285 286 287 288 289 290 [...] (41 flits)
Measured flits: 261 282 283 284 285 286 287 288 289 290 [...] (41 flits)
Class 0:
Remaining flits: 261 282 283 284 285 286 287 288 289 290 [...] (41 flits)
Measured flits: 261 282 283 284 285 286 287 288 289 290 [...] (41 flits)
Class 0:
Remaining flits: 261 282 283 284 285 286 287 288 289 290 [...] (41 flits)
Measured flits: 261 282 283 284 285 286 287 288 289 290 [...] (41 flits)
Class 0:
Remaining flits: 261 282 283 284 285 286 287 288 289 290 [...] (41 flits)
Measured flits: 261 282 283 284 285 286 287 288 289 290 [...] (41 flits)
Class 0:
Remaining flits: 261 282 283 284 285 286 287 288 289 290 [...] (41 flits)
Measured flits: 261 282 283 284 285 286 287 288 289 290 [...] (41 flits)
Class 0:
Remaining flits: 261 282 283 284 285 286 287 288 289 290 [...] (41 flits)
Measured flits: 261 282 283 284 285 286 287 288 289 290 [...] (41 flits)
Class 0:
Remaining flits: 261 282 283 284 285 286 287 288 289 290 [...] (41 flits)
Measured flits: 261 282 283 284 285 286 287 288 289 290 [...] (41 flits)
Class 0:
Remaining flits: 261 282 283 284 285 286 287 288 289 290 [...] (41 flits)
Measured flits: 261 282 283 284 285 286 287 288 289 290 [...] (41 flits)
Class 0:
Remaining flits: 261 282 283 284 285 286 287 288 289 290 [...] (41 flits)
Measured flits: 261 282 283 284 285 286 287 288 289 290 [...] (41 flits)
Class 0:
Remaining flits: 261 282 283 284 285 286 287 288 289 290 [...] (41 flits)
Measured flits: 261 282 283 284 285 286 287 288 289 290 [...] (41 flits)
Class 0:
Remaining flits: 261 282 283 284 285 286 287 288 289 290 [...] (41 flits)
Measured flits: 261 282 283 284 285 286 287 288 289 290 [...] (41 flits)
Class 0:
Remaining flits: 261 282 283 284 285 286 287 288 289 290 [...] (41 flits)
Measured flits: 261 282 283 284 285 286 287 288 289 290 [...] (41 flits)
Class 0:
Remaining flits: 261 282 283 284 285 286 287 288 289 290 [...] (41 flits)
Measured flits: 261 282 283 284 285 286 287 288 289 290 [...] (41 flits)
Class 0:
Remaining flits: 261 282 283 284 285 286 287 288 289 290 [...] (41 flits)
Measured flits: 261 282 283 284 285 286 287 288 289 290 [...] (41 flits)
Class 0:
Remaining flits: 261 282 283 284 285 286 287 288 289 290 [...] (41 flits)
Measured flits: 261 282 283 284 285 286 287 288 289 290 [...] (41 flits)
Class 0:
Remaining flits: 261 282 283 284 285 286 287 288 289 290 [...] (41 flits)
Measured flits: 261 282 283 284 285 286 287 288 289 290 [...] (41 flits)
Class 0:
Remaining flits: 261 282 283 284 285 286 287 288 289 290 [...] (41 flits)
Measured flits: 261 282 283 284 285 286 287 288 289 290 [...] (41 flits)
Class 0:
Remaining flits: 261 282 283 284 285 286 287 288 289 290 [...] (41 flits)
Measured flits: 261 282 283 284 285 286 287 288 289 290 [...] (41 flits)
Class 0:
Remaining flits: 261 282 283 284 285 286 287 288 289 290 [...] (41 flits)
Measured flits: 261 282 283 284 285 286 287 288 289 290 [...] (41 flits)
Class 0:
Remaining flits: 261 282 283 284 285 286 287 288 289 290 [...] (41 flits)
Measured flits: 261 282 283 284 285 286 287 288 289 290 [...] (41 flits)
Class 0:
Remaining flits: 261 282 283 284 285 286 287 288 289 290 [...] (41 flits)
Measured flits: 261 282 283 284 285 286 287 288 289 290 [...] (41 flits)
Class 0:
Remaining flits: 261 282 283 284 285 286 287 288 289 290 [...] (41 flits)
Measured flits: 261 282 283 284 285 286 287 288 289 290 [...] (41 flits)
Class 0:
Remaining flits: 261 282 283 284 285 286 287 288 289 290 [...] (41 flits)
Measured flits: 261 282 283 284 285 286 287 288 289 290 [...] (41 flits)
Class 0:
Remaining flits: 261 282 283 284 285 286 287 288 289 290 [...] (41 flits)
Measured flits: 261 282 283 284 285 286 287 288 289 290 [...] (41 flits)
Class 0:
Remaining flits: 261 282 283 284 285 286 287 288 289 290 [...] (41 flits)
Measured flits: 261 282 283 284 285 286 287 288 289 290 [...] (41 flits)
Class 0:
Remaining flits: 261 282 283 284 285 286 287 288 289 290 [...] (41 flits)
Measured flits: 261 282 283 284 285 286 287 288 289 290 [...] (41 flits)
Class 0:
Remaining flits: 261 282 283 284 285 286 287 288 289 290 [...] (41 flits)
Measured flits: 261 282 283 284 285 286 287 288 289 290 [...] (41 flits)
Class 0:
Remaining flits: 261 282 283 284 285 286 287 288 289 290 [...] (41 flits)
Measured flits: 261 282 283 284 285 286 287 288 289 290 [...] (41 flits)
Class 0:
Remaining flits: 261 282 283 284 285 286 287 288 289 290 [...] (41 flits)
Measured flits: 261 282 283 284 285 286 287 288 289 290 [...] (41 flits)
Class 0:
Remaining flits: 261 282 283 284 285 286 287 288 289 290 [...] (41 flits)
Measured flits: 261 282 283 284 285 286 287 288 289 290 [...] (41 flits)
Class 0:
Remaining flits: 261 282 283 284 285 286 287 288 289 290 [...] (41 flits)
Measured flits: 261 282 283 284 285 286 287 288 289 290 [...] (41 flits)
Class 0:
Remaining flits: 261 282 283 284 285 286 287 288 289 290 [...] (41 flits)
Measured flits: 261 282 283 284 285 286 287 288 289 290 [...] (41 flits)
Class 0:
Remaining flits: 261 282 283 284 285 286 287 288 289 290 [...] (41 flits)
Measured flits: 261 282 283 284 285 286 287 288 289 290 [...] (41 flits)
Class 0:
Remaining flits: 261 282 283 284 285 286 287 288 289 290 [...] (41 flits)
Measured flits: 261 282 283 284 285 286 287 288 289 290 [...] (41 flits)
Class 0:
Remaining flits: 261 282 283 284 285 286 287 288 289 290 [...] (41 flits)
Measured flits: 261 282 283 284 285 286 287 288 289 290 [...] (41 flits)
Class 0:
Remaining flits: 261 282 283 284 285 286 287 288 289 290 [...] (41 flits)
Measured flits: 261 282 283 284 285 286 287 288 289 290 [...] (41 flits)
Class 0:
Remaining flits: 261 282 283 284 285 286 287 288 289 290 [...] (41 flits)
Measured flits: 261 282 283 284 285 286 287 288 289 290 [...] (41 flits)
Class 0:
Remaining flits: 261 282 283 284 285 286 287 288 289 290 [...] (41 flits)
Measured flits: 261 282 283 284 285 286 287 288 289 290 [...] (41 flits)
Class 0:
Remaining flits: 261 282 283 284 285 286 287 288 289 290 [...] (41 flits)
Measured flits: 261 282 283 284 285 286 287 288 289 290 [...] (41 flits)
Class 0:
Remaining flits: 261 282 283 284 285 286 287 288 289 290 [...] (41 flits)
Measured flits: 261 282 283 284 285 286 287 288 289 290 [...] (41 flits)
Class 0:
Remaining flits: 261 282 283 284 285 286 287 288 289 290 [...] (41 flits)
Measured flits: 261 282 283 284 285 286 287 288 289 290 [...] (41 flits)
Class 0:
Remaining flits: 261 282 283 284 285 286 287 288 289 290 [...] (41 flits)
Measured flits: 261 282 283 284 285 286 287 288 289 290 [...] (41 flits)
Class 0:
Remaining flits: 261 282 283 284 285 286 287 288 289 290 [...] (41 flits)
Measured flits: 261 282 283 284 285 286 287 288 289 290 [...] (41 flits)
Class 0:
Remaining flits: 261 282 283 284 285 286 287 288 289 290 [...] (41 flits)
Measured flits: 261 282 283 284 285 286 287 288 289 290 [...] (41 flits)
Class 0:
Remaining flits: 261 282 283 284 285 286 287 288 289 290 [...] (41 flits)
Measured flits: 261 282 283 284 285 286 287 288 289 290 [...] (41 flits)
Class 0:
Remaining flits: 261 282 283 284 285 286 287 288 289 290 [...] (41 flits)
Measured flits: 261 282 283 284 285 286 287 288 289 290 [...] (41 flits)
Class 0:
Remaining flits: 261 282 283 284 285 286 287 288 289 290 [...] (41 flits)
Measured flits: 261 282 283 284 285 286 287 288 289 290 [...] (41 flits)
Class 0:
Remaining flits: 261 282 283 284 285 286 287 288 289 290 [...] (41 flits)
Measured flits: 261 282 283 284 285 286 287 288 289 290 [...] (41 flits)
Class 0:
Remaining flits: 261 282 283 284 285 286 287 288 289 290 [...] (41 flits)
Measured flits: 261 282 283 284 285 286 287 288 289 290 [...] (41 flits)
Class 0:
Remaining flits: 261 282 283 284 285 286 287 288 289 290 [...] (41 flits)
Measured flits: 261 282 283 284 285 286 287 288 289 290 [...] (41 flits)
Class 0:
Remaining flits: 261 282 283 284 285 286 287 288 289 290 [...] (41 flits)
Measured flits: 261 282 283 284 285 286 287 288 289 290 [...] (41 flits)
Class 0:
Remaining flits: 261 282 283 284 285 286 287 288 289 290 [...] (41 flits)
Measured flits: 261 282 283 284 285 286 287 288 289 290 [...] (41 flits)
Time taken is 131000 cycles
====== Traffic class 0 ======

Total number of flits generated = 382, changed lanes = 0
Overall minimum packet latency = 538 (1 samples)
Overall average packet latency = 38053.8 (1 samples)
Overall maximum packet latency = 85362 (1 samples)
Overall minimum network latency = 69 (1 samples)
Overall average network latency = 33722 (1 samples)
Overall maximum network latency = 85362 (1 samples)
Overall minimum flit latency = 34 (1 samples)
Overall average flit latency = 27805 (1 samples)
Overall maximum flit latency = 116522 (1 samples)
Overall minimum fragmentation = 3 (1 samples)
Overall average fragmentation = 13454.9 (1 samples)
Overall maximum fragmentation = 72034 (1 samples)
Overall minimum injected packet rate = 0 (1 samples)
Overall average injected packet rate = 3.59375e-06 (1 samples)
Overall maximum injected packet rate = 7e-05 (1 samples)
Overall minimum accepted packet rate = 0 (1 samples)
Overall average accepted packet rate = 1.71875e-06 (1 samples)
Overall maximum accepted packet rate = 6e-05 (1 samples)
Overall minimum injected flit rate = 0 (1 samples)
Overall average injected flit rate = 1.73438e-05 (1 samples)
Overall maximum injected flit rate = 0.00035 (1 samples)
Overall minimum accepted flit rate = 0 (1 samples)
Overall average accepted flit rate = 9.21875e-06 (1 samples)
Overall maximum accepted flit rate = 0.0003 (1 samples)
Overall average injected packet size = 4.82609 (1 samples)
Overall average accepted packet size = 5.36364 (1 samples)
Overall average hops = 4.61111 (1 samples)
Overall throughput of the network (flits/cycle) = 0.00341
Overall throughput of the network (packets/cycle) = 0.00069
Overall workload runtime = 100000 (1 samples)

The distribution of the source packets of size 1 is: 

Source [0] = 0
Source [1] = 1
Source [2] = 1
Source [3] = 0
Source [4] = 0
Source [5] = 0
Source [6] = 0
Source [7] = 0
Source [8] = 0
Source [9] = 0
Source [10] = 0
Source [11] = 0
Source [12] = 0
Source [13] = 0
Source [14] = 0
Source [15] = 0
Source [16] = 0
Source [17] = 0
Source [18] = 0
Source [19] = 0
Source [20] = 0
Source [21] = 0
Source [22] = 0
Source [23] = 0
Source [24] = 0
Source [25] = 0
Source [26] = 0
Source [27] = 0
Source [28] = 0
Source [29] = 0
Source [30] = 0
Source [31] = 0
Source [32] = 0
Source [33] = 0
Source [34] = 0
Source [35] = 0
Source [36] = 0
Source [37] = 0
Source [38] = 0
Source [39] = 0
Source [40] = 0
Source [41] = 0
Source [42] = 0
Source [43] = 0
Source [44] = 0
Source [45] = 0
Source [46] = 0
Source [47] = 0
Source [48] = 0
Source [49] = 0
Source [50] = 0
Source [51] = 0
Source [52] = 0
Source [53] = 0
Source [54] = 0
Source [55] = 0
Source [56] = 0
Source [57] = 0
Source [58] = 0
Source [59] = 0
Source [60] = 0
Source [61] = 0
Source [62] = 0
Source [63] = 0
The distribution of the source packets of size 5 is: 

Source [0] = 3
Source [1] = 4
Source [2] = 3
Source [3] = 3
Source [4] = 0
Source [5] = 1
Source [6] = 0
Source [7] = 0
Source [8] = 0
Source [9] = 0
Source [10] = 0
Source [11] = 0
Source [12] = 0
Source [13] = 0
Source [14] = 0
Source [15] = 0
Source [16] = 0
Source [17] = 0
Source [18] = 0
Source [19] = 0
Source [20] = 0
Source [21] = 0
Source [22] = 0
Source [23] = 0
Source [24] = 0
Source [25] = 0
Source [26] = 0
Source [27] = 0
Source [28] = 0
Source [29] = 0
Source [30] = 0
Source [31] = 0
Source [32] = 25
Source [33] = 6
Source [34] = 0
Source [35] = 0
Source [36] = 0
Source [37] = 0
Source [38] = 0
Source [39] = 0
Source [40] = 0
Source [41] = 1
Source [42] = 0
Source [43] = 0
Source [44] = 0
Source [45] = 0
Source [46] = 1
Source [47] = 0
Source [48] = 0
Source [49] = 0
Source [50] = 0
Source [51] = 0
Source [52] = 0
Source [53] = 0
Source [54] = 0
Source [55] = 0
Source [56] = 0
Source [57] = 1
Source [58] = 0
Source [59] = 0
Source [60] = 0
Source [61] = 6
Source [62] = 14
Source [63] = 8
The distribution of the dest packets of size 1 is: 

dest [0] = 0
dest [1] = 1
dest [2] = 0
dest [3] = 0
dest [4] = 0
dest [5] = 1
dest [6] = 0
dest [7] = 0
dest [8] = 0
dest [9] = 0
dest [10] = 0
dest [11] = 0
dest [12] = 0
dest [13] = 0
dest [14] = 0
dest [15] = 0
dest [16] = 0
dest [17] = 0
dest [18] = 0
dest [19] = 0
dest [20] = 0
dest [21] = 0
dest [22] = 0
dest [23] = 0
dest [24] = 0
dest [25] = 0
dest [26] = 0
dest [27] = 0
dest [28] = 0
dest [29] = 0
dest [30] = 0
dest [31] = 0
dest [32] = 0
dest [33] = 0
dest [34] = 0
dest [35] = 0
dest [36] = 0
dest [37] = 0
dest [38] = 0
dest [39] = 0
dest [40] = 0
dest [41] = 0
dest [42] = 0
dest [43] = 0
dest [44] = 0
dest [45] = 0
dest [46] = 0
dest [47] = 0
dest [48] = 0
dest [49] = 0
dest [50] = 0
dest [51] = 0
dest [52] = 0
dest [53] = 0
dest [54] = 0
dest [55] = 0
dest [56] = 0
dest [57] = 0
dest [58] = 0
dest [59] = 0
dest [60] = 0
dest [61] = 0
dest [62] = 0
dest [63] = 0
The distribution of the dest packets of size 5 is: 

dest [0] = 0
dest [1] = 1
dest [2] = 29
dest [3] = 0
dest [4] = 0
dest [5] = 11
dest [6] = 0
dest [7] = 0
dest [8] = 0
dest [9] = 0
dest [10] = 0
dest [11] = 0
dest [12] = 0
dest [13] = 0
dest [14] = 0
dest [15] = 0
dest [16] = 3
dest [17] = 0
dest [18] = 0
dest [19] = 0
dest [20] = 0
dest [21] = 0
dest [22] = 0
dest [23] = 3
dest [24] = 0
dest [25] = 0
dest [26] = 0
dest [27] = 0
dest [28] = 0
dest [29] = 0
dest [30] = 0
dest [31] = 0
dest [32] = 0
dest [33] = 0
dest [34] = 0
dest [35] = 0
dest [36] = 0
dest [37] = 0
dest [38] = 0
dest [39] = 0
dest [40] = 0
dest [41] = 0
dest [42] = 0
dest [43] = 0
dest [44] = 0
dest [45] = 0
dest [46] = 0
dest [47] = 6
dest [48] = 0
dest [49] = 0
dest [50] = 0
dest [51] = 0
dest [52] = 0
dest [53] = 0
dest [54] = 0
dest [55] = 0
dest [56] = 0
dest [57] = 0
dest [58] = 15
dest [59] = 0
dest [60] = 0
dest [61] = 8
dest [62] = 0
dest [63] = 0Total run time 234.064
