make: Nothing to be done for 'all'.
Master: Running timer....
Master: Running SRC....
BEGIN Configuration File: ./examples/bitrev
// Topology

topology = torus;
k = 4;
n = 2;

// Routing
routing_function = dim_order;

// Flow control
num_vcs     = 4;
vc_buf_size = 4;
wait_for_tail_credit = 0;

// Router architecture
vc_allocator = islip;
sw_allocator = islip;
alloc_iters  = 1;

credit_delay   = 1;
routing_delay  = 1;
vc_alloc_delay = 1;
sw_alloc_delay = 1;

input_speedup     = 1;
output_speedup    = 1;
internal_speedup  = 1.0;

vc_busy_when_full = 0;

// Traffic
traffic = bitrev;
packet_size = 1;

// Simulation
sim_type = throughput;

injection_rate = 0.05;

END Configuration File: ./examples/bitrev
===== Time: 1000 =====
Class 0:
Minimum packet latency = 8
Average packet latency = 36.2748
Maximum packet latency = 105
Minimum network latency = 9
Average network latency = 37.2748
Maximum network latency = 106
Slowest packet = 115
Minimum flit latency = 9
Average flit latency = 37.2748
Maximum flit latency = 106
Slowest flit = 115
Minimum fragmentation = 0
Average fragmentation = 0
Maximum fragmentation = 0
Minimum injected packet rate = 0.041 (at node 5)
Average injected packet rate = 0.048875
Maximum injected packet rate = 0.054 (at node 1)
Minimum accepted packet rate = 0.039 (at node 1)
Average accepted packet rate = 0.0473125
Maximum accepted packet rate = 0.052 (at node 3)
Minimum injected flit rate = 0.041 (at node 5)
Average injected flit rate = 0.048875
Maximum injected flit rate = 0.054 (at node 1)
Minimum accepted flit rate = 0.039 (at node 1)
Average accepted flit rate = 0.0473125
Maximum accepted flit rate = 0.052 (at node 3)
Total number of injected packets = 782
Total number of injected flits = 782
Average injected packet length = 1
Total number of accepted packets = 757
Total number of accepted flits = 757
Average accepted packet length = 1
Total in-flight flits = 25 (0 measured)
===== Time: 2000 =====
Class 0:
Minimum packet latency = 8
Average packet latency = 36.3954
Maximum packet latency = 119
Minimum network latency = 9
Average network latency = 37.3954
Maximum network latency = 120
Slowest packet = 1067
Minimum flit latency = 9
Average flit latency = 37.3954
Maximum flit latency = 120
Slowest flit = 1067
Minimum fragmentation = 0
Average fragmentation = 0
Maximum fragmentation = 0
Minimum injected packet rate = 0.0395 (at node 8)
Average injected packet rate = 0.049125
Maximum injected packet rate = 0.057 (at node 12)
Minimum accepted packet rate = 0.039 (at node 1)
Average accepted packet rate = 0.0479687
Maximum accepted packet rate = 0.056 (at node 3)
Minimum injected flit rate = 0.0395 (at node 8)
Average injected flit rate = 0.049125
Maximum injected flit rate = 0.057 (at node 12)
Minimum accepted flit rate = 0.039 (at node 1)
Average accepted flit rate = 0.0479687
Maximum accepted flit rate = 0.056 (at node 3)
Total number of injected packets = 1572
Total number of injected flits = 1572
Average injected packet length = 1
Total number of accepted packets = 1535
Total number of accepted flits = 1535
Average accepted packet length = 1
Total in-flight flits = 37 (0 measured)
===== Time: 3000 =====
Class 0:
Minimum packet latency = 8
Average packet latency = 37.0664
Maximum packet latency = 82
Minimum network latency = 9
Average network latency = 38.0664
Maximum network latency = 83
Slowest packet = 1871
Minimum flit latency = 9
Average flit latency = 38.0664
Maximum flit latency = 83
Slowest flit = 1871
Minimum fragmentation = 0
Average fragmentation = 0
Maximum fragmentation = 0
Minimum injected packet rate = 0.045 (at node 4)
Average injected packet rate = 0.0518125
Maximum injected packet rate = 0.059 (at node 1)
Minimum accepted packet rate = 0.045 (at node 0)
Average accepted packet rate = 0.05175
Maximum accepted packet rate = 0.059 (at node 8)
Minimum injected flit rate = 0.045 (at node 4)
Average injected flit rate = 0.0518125
Maximum injected flit rate = 0.059 (at node 1)
Minimum accepted flit rate = 0.045 (at node 0)
Average accepted flit rate = 0.05175
Maximum accepted flit rate = 0.059 (at node 8)
Total number of injected packets = 829
Total number of injected flits = 829
Average injected packet length = 1
Total number of accepted packets = 828
Total number of accepted flits = 828
Average accepted packet length = 1
Total in-flight flits = 38 (0 measured)
===== Time: 4000 =====
Class 0:
Minimum packet latency = 8
Average packet latency = 35.8874
Maximum packet latency = 84
Minimum network latency = 9
Average network latency = 36.8874
Maximum network latency = 85
Slowest packet = 2713
Minimum flit latency = 9
Average flit latency = 37.2568
Maximum flit latency = 85
Slowest flit = 2713
Minimum fragmentation = 0
Average fragmentation = 0
Maximum fragmentation = 0
Minimum injected packet rate = 0.035 (at node 0)
Average injected packet rate = 0.0480625
Maximum injected packet rate = 0.057 (at node 9)
Minimum accepted packet rate = 0.036 (at node 0)
Average accepted packet rate = 0.0484375
Maximum accepted packet rate = 0.058 (at node 9)
Minimum injected flit rate = 0.035 (at node 0)
Average injected flit rate = 0.0480625
Maximum injected flit rate = 0.057 (at node 9)
Minimum accepted flit rate = 0.036 (at node 0)
Average accepted flit rate = 0.0484375
Maximum accepted flit rate = 0.058 (at node 9)
Total number of injected packets = 769
Total number of injected flits = 769
Average injected packet length = 1
Total number of accepted packets = 775
Total number of accepted flits = 775
Average accepted packet length = 1
Total in-flight flits = 32 (32 measured)
===== Time: 5000 =====
Class 0:
Minimum packet latency = 8
Average packet latency = 36.1477
Maximum packet latency = 128
Minimum network latency = 9
Average network latency = 37.1477
Maximum network latency = 129
Slowest packet = 3402
Minimum flit latency = 9
Average flit latency = 37.3271
Maximum flit latency = 129
Slowest flit = 3402
Minimum fragmentation = 0
Average fragmentation = 0
Maximum fragmentation = 0
Minimum injected packet rate = 0.0365 (at node 0)
Average injected packet rate = 0.0476875
Maximum injected packet rate = 0.0575 (at node 9)
Minimum accepted packet rate = 0.037 (at node 0)
Average accepted packet rate = 0.0481562
Maximum accepted packet rate = 0.058 (at node 9)
Minimum injected flit rate = 0.0365 (at node 0)
Average injected flit rate = 0.0476875
Maximum injected flit rate = 0.0575 (at node 9)
Minimum accepted flit rate = 0.037 (at node 0)
Average accepted flit rate = 0.0481562
Maximum accepted flit rate = 0.058 (at node 9)
Total number of injected packets = 1526
Total number of injected flits = 1526
Average injected packet length = 1
Total number of accepted packets = 1541
Total number of accepted flits = 1541
Average accepted packet length = 1
Total in-flight flits = 23 (23 measured)
===== Time: 6000 =====
Class 0:
Minimum packet latency = 8
Average packet latency = 36.1877
Maximum packet latency = 128
Minimum network latency = 9
Average network latency = 37.1877
Maximum network latency = 129
Slowest packet = 3402
Minimum flit latency = 9
Average flit latency = 37.3061
Maximum flit latency = 129
Slowest flit = 3402
Minimum fragmentation = 0
Average fragmentation = 0
Maximum fragmentation = 0
Minimum injected packet rate = 0.041 (at node 0)
Average injected packet rate = 0.0481667
Maximum injected packet rate = 0.057 (at node 15)
Minimum accepted packet rate = 0.0416667 (at node 0)
Average accepted packet rate = 0.0483958
Maximum accepted packet rate = 0.057 (at node 15)
Minimum injected flit rate = 0.041 (at node 0)
Average injected flit rate = 0.0481667
Maximum injected flit rate = 0.057 (at node 15)
Minimum accepted flit rate = 0.0416667 (at node 0)
Average accepted flit rate = 0.0483958
Maximum accepted flit rate = 0.057 (at node 15)
Total number of injected packets = 2312
Total number of injected flits = 2312
Average injected packet length = 1
Total number of accepted packets = 2323
Total number of accepted flits = 2323
Average accepted packet length = 1
Total in-flight flits = 27 (27 measured)
===== Time: 7000 =====
Class 0:
Minimum packet latency = 8
Average packet latency = 36.5619
Maximum packet latency = 128
Minimum network latency = 9
Average network latency = 37.5619
Maximum network latency = 129
Slowest packet = 3402
Minimum flit latency = 9
Average flit latency = 37.6449
Maximum flit latency = 129
Slowest flit = 3402
Minimum fragmentation = 0
Average fragmentation = 0
Maximum fragmentation = 0
Minimum injected packet rate = 0.04275 (at node 0)
Average injected packet rate = 0.0488906
Maximum injected packet rate = 0.054 (at node 15)
Minimum accepted packet rate = 0.04325 (at node 0)
Average accepted packet rate = 0.0490625
Maximum accepted packet rate = 0.054 (at node 15)
Minimum injected flit rate = 0.04275 (at node 0)
Average injected flit rate = 0.0488906
Maximum injected flit rate = 0.054 (at node 15)
Minimum accepted flit rate = 0.04325 (at node 0)
Average accepted flit rate = 0.0490625
Maximum accepted flit rate = 0.054 (at node 15)
Total number of injected packets = 3129
Total number of injected flits = 3129
Average injected packet length = 1
Total number of accepted packets = 3140
Total number of accepted flits = 3140
Average accepted packet length = 1
Total in-flight flits = 27 (27 measured)
Draining remaining packets ...
Class 0:
Remaining flits: 5500 5502 5504 5509 5510 5511 5513 5515 5516 5517 [...] (20 flits)
Measured flits: 5500 5502 5504 5509 5510 5511 5513 5515 5516 5517 [...] (20 flits)
Class 0:
Remaining flits: 5513 5515 5516 5517 5519 5521 5522 5523 5524 5525 [...] (13 flits)
Measured flits: 5513 5515 5516 5517 5519 5521 5522 5523 5524 5525 [...] (13 flits)
Class 0:
Remaining flits: 5513 5517 5519 5521 5522 5524 5525 5526 5527 5528 (10 flits)
Measured flits: 5513 5517 5519 5521 5522 5524 5525 5526 5527 5528 (10 flits)
Class 0:
Remaining flits: 5517 5524 5525 5526 5527 5528 (6 flits)
Measured flits: 5517 5524 5525 5526 5527 5528 (6 flits)
Class 0:
Remaining flits: 5525 5526 (2 flits)
Measured flits: 5525 5526 (2 flits)
Class 0:
Remaining flits: (0 flits)
Measured flits: (0 flits)
Class 0:
Remaining flits: (0 flits)
Measured flits: (0 flits)
Class 0:
Remaining flits: (0 flits)
Measured flits: (0 flits)
Class 0:
Remaining flits: (0 flits)
Measured flits: (0 flits)
Class 0:
Remaining flits: (0 flits)
Measured flits: (0 flits)
Class 0:
Remaining flits: (0 flits)
Measured flits: (0 flits)
Class 0:
Remaining flits: (0 flits)
Measured flits: (0 flits)
Class 0:
Remaining flits: (0 flits)
Measured flits: (0 flits)
Class 0:
Remaining flits: (0 flits)
Measured flits: (0 flits)
Class 0:
Remaining flits: (0 flits)
Measured flits: (0 flits)
Class 0:
Remaining flits: (0 flits)
Measured flits: (0 flits)
Class 0:
Remaining flits: (0 flits)
Measured flits: (0 flits)
Class 0:
Remaining flits: (0 flits)
Measured flits: (0 flits)
Class 0:
Remaining flits: (0 flits)
Measured flits: (0 flits)
Class 0:
Remaining flits: (0 flits)
Measured flits: (0 flits)
Class 0:
Remaining flits: (0 flits)
Measured flits: (0 flits)
Class 0:
Remaining flits: (0 flits)
Measured flits: (0 flits)
Class 0:
Remaining flits: (0 flits)
Measured flits: (0 flits)
Class 0:
Remaining flits: (0 flits)
Measured flits: (0 flits)
Class 0:
Remaining flits: (0 flits)
Measured flits: (0 flits)
Class 0:
Remaining flits: (0 flits)
Measured flits: (0 flits)
Class 0:
Remaining flits: (0 flits)
Measured flits: (0 flits)
Class 0:
Remaining flits: (0 flits)
Measured flits: (0 flits)
Class 0:
Remaining flits: (0 flits)
Measured flits: (0 flits)
Class 0:
Remaining flits: (0 flits)
Measured flits: (0 flits)
Class 0:
Remaining flits: (0 flits)
Measured flits: (0 flits)
Class 0:
Remaining flits: (0 flits)
Measured flits: (0 flits)
Class 0:
Remaining flits: (0 flits)
Measured flits: (0 flits)
Class 0:
Remaining flits: (0 flits)
Measured flits: (0 flits)
Class 0:
Remaining flits: (0 flits)
Measured flits: (0 flits)
Class 0:
Remaining flits: (0 flits)
Measured flits: (0 flits)
Class 0:
Remaining flits: (0 flits)
Measured flits: (0 flits)
Class 0:
Remaining flits: (0 flits)
Measured flits: (0 flits)
Class 0:
Remaining flits: (0 flits)
Measured flits: (0 flits)
Class 0:
Remaining flits: (0 flits)
Measured flits: (0 flits)
Class 0:
Remaining flits: (0 flits)
Measured flits: (0 flits)
Class 0:
Remaining flits: (0 flits)
Measured flits: (0 flits)
Class 0:
Remaining flits: (0 flits)
Measured flits: (0 flits)
Class 0:
Remaining flits: (0 flits)
Measured flits: (0 flits)
Class 0:
Remaining flits: (0 flits)
Measured flits: (0 flits)
Class 0:
Remaining flits: (0 flits)
Measured flits: (0 flits)
Class 0:
Remaining flits: (0 flits)
Measured flits: (0 flits)
Class 0:
Remaining flits: (0 flits)
Measured flits: (0 flits)
Class 0:
Remaining flits: (0 flits)
Measured flits: (0 flits)
Class 0:
Remaining flits: (0 flits)
Measured flits: (0 flits)
Class 0:
Remaining flits: (0 flits)
Measured flits: (0 flits)
Class 0:
Remaining flits: (0 flits)
Measured flits: (0 flits)
Class 0:
Remaining flits: (0 flits)
Measured flits: (0 flits)
Class 0:
Remaining flits: (0 flits)
Measured flits: (0 flits)
Class 0:
Remaining flits: (0 flits)
Measured flits: (0 flits)
Class 0:
Remaining flits: (0 flits)
Measured flits: (0 flits)
Class 0:
Remaining flits: (0 flits)
Measured flits: (0 flits)
Class 0:
Remaining flits: (0 flits)
Measured flits: (0 flits)
Class 0:
Remaining flits: (0 flits)
Measured flits: (0 flits)
Class 0:
Remaining flits: (0 flits)
Measured flits: (0 flits)
Class 0:
Remaining flits: (0 flits)
Measured flits: (0 flits)
Class 0:
Remaining flits: (0 flits)
Measured flits: (0 flits)
Class 0:
Remaining flits: (0 flits)
Measured flits: (0 flits)
Class 0:
Remaining flits: (0 flits)
Measured flits: (0 flits)
Class 0:
Remaining flits: (0 flits)
Measured flits: (0 flits)
Class 0:
Remaining flits: (0 flits)
Measured flits: (0 flits)
Class 0:
Remaining flits: (0 flits)
Measured flits: (0 flits)
Class 0:
Remaining flits: (0 flits)
Measured flits: (0 flits)
Class 0:
Remaining flits: (0 flits)
Measured flits: (0 flits)
Class 0:
Remaining flits: (0 flits)
Measured flits: (0 flits)
Class 0:
Remaining flits: (0 flits)
Measured flits: (0 flits)
Class 0:
Remaining flits: (0 flits)
Measured flits: (0 flits)
Class 0:
Remaining flits: (0 flits)
Measured flits: (0 flits)
Class 0:
Remaining flits: (0 flits)
Measured flits: (0 flits)
Class 0:
Remaining flits: (0 flits)
Measured flits: (0 flits)
Class 0:
Remaining flits: (0 flits)
Measured flits: (0 flits)
Class 0:
Remaining flits: (0 flits)
Measured flits: (0 flits)
Class 0:
Remaining flits: (0 flits)
Measured flits: (0 flits)
Class 0:
Remaining flits: (0 flits)
Measured flits: (0 flits)
Class 0:
Remaining flits: (0 flits)
Measured flits: (0 flits)
Class 0:
Remaining flits: (0 flits)
Measured flits: (0 flits)
Class 0:
Remaining flits: (0 flits)
Measured flits: (0 flits)
Class 0:
Remaining flits: (0 flits)
Measured flits: (0 flits)
Class 0:
Remaining flits: (0 flits)
Measured flits: (0 flits)
Class 0:
Remaining flits: (0 flits)
Measured flits: (0 flits)
Class 0:
Remaining flits: (0 flits)
Measured flits: (0 flits)
Class 0:
Remaining flits: (0 flits)
Measured flits: (0 flits)
Class 0:
Remaining flits: (0 flits)
Measured flits: (0 flits)
Class 0:
Remaining flits: (0 flits)
Measured flits: (0 flits)
Class 0:
Remaining flits: (0 flits)
Measured flits: (0 flits)
Class 0:
Remaining flits: (0 flits)
Measured flits: (0 flits)
Class 0:
Remaining flits: (0 flits)
Measured flits: (0 flits)
Class 0:
Remaining flits: (0 flits)
Measured flits: (0 flits)
Class 0:
Remaining flits: (0 flits)
Measured flits: (0 flits)
Class 0:
Remaining flits: (0 flits)
Measured flits: (0 flits)
Class 0:
Remaining flits: (0 flits)
Measured flits: (0 flits)
Class 0:
Remaining flits: (0 flits)
Measured flits: (0 flits)
Class 0:
Remaining flits: (0 flits)
Measured flits: (0 flits)
Class 0:
Remaining flits: (0 flits)
Measured flits: (0 flits)
Class 0:
Remaining flits: (0 flits)
Measured flits: (0 flits)
Class 0:
Remaining flits: (0 flits)
Measured flits: (0 flits)
Time taken is 8000 cycles
====== Traffic class 0 ======

Total number of flits generated = 5530, changed lanes = 5184
Overall minimum packet latency = 8 (1 samples)
Overall average packet latency = 36.6306 (1 samples)
Overall maximum packet latency = 128 (1 samples)
Overall minimum network latency = 9 (1 samples)
Overall average network latency = 37.6306 (1 samples)
Overall maximum network latency = 129 (1 samples)
Overall minimum flit latency = 9 (1 samples)
Overall average flit latency = 37.712 (1 samples)
Overall maximum flit latency = 129 (1 samples)
Overall minimum fragmentation = 0 (1 samples)
Overall average fragmentation = 0 (1 samples)
Overall maximum fragmentation = 0 (1 samples)
Overall minimum injected packet rate = 0.04275 (1 samples)
Overall average injected packet rate = 0.0488906 (1 samples)
Overall maximum injected packet rate = 0.054 (1 samples)
Overall minimum accepted packet rate = 0.04325 (1 samples)
Overall average accepted packet rate = 0.0490625 (1 samples)
Overall maximum accepted packet rate = 0.054 (1 samples)
Overall minimum injected flit rate = 0.04275 (1 samples)
Overall average injected flit rate = 0.0488906 (1 samples)
Overall maximum injected flit rate = 0.054 (1 samples)
Overall minimum accepted flit rate = 0.04325 (1 samples)
Overall average accepted flit rate = 0.0490625 (1 samples)
Overall maximum accepted flit rate = 0.054 (1 samples)
Overall average injected packet size = 1 (1 samples)
Overall average accepted packet size = 1 (1 samples)
Overall average hops = 2.9968 (1 samples)
Overall throughput of the network (flits/cycle) = 1.3825
Overall throughput of the network (packets/cycle) = 1.3825
Total run time 6.72552
