make: Nothing to be done for 'all'.
Master: Running timer....
Master: Running SRC....
BEGIN Configuration File: ./examples/bitrev
// Topology

topology = mesh;
k = 4;
n = 2;

// Routing
routing_function = dor;

// Flow control
num_vcs     = 4;
vc_buf_size = 4;
wait_for_tail_credit = 0;

// Router architecture
vc_allocator = islip;
sw_allocator = islip;
alloc_iters  = 1;

credit_delay   = 1;
routing_delay  = 1;
vc_alloc_delay = 1;
sw_alloc_delay = 1;

input_speedup     = 1;
output_speedup    = 1;
internal_speedup  = 1.0;

vc_busy_when_full = 0;

// Traffic
traffic = uniform;
packet_size = 1;

// Simulation
sim_type = throughput;

injection_rate = 0.17;

END Configuration File: ./examples/bitrev
===== Time: 1000 =====
Class 0:
Minimum packet latency = 7
Average packet latency = 61.0647
Maximum packet latency = 221
Minimum network latency = 8
Average network latency = 62.0488
Maximum network latency = 222
Slowest packet = 1841
Minimum flit latency = 8
Average flit latency = 62.0488
Maximum flit latency = 222
Slowest flit = 1841
Minimum fragmentation = 0
Average fragmentation = 0
Maximum fragmentation = 0
Minimum injected packet rate = 0.151 (at node 6)
Average injected packet rate = 0.164813
Maximum injected packet rate = 0.177 (at node 0)
Minimum accepted packet rate = 0.135 (at node 14)
Average accepted packet rate = 0.149812
Maximum accepted packet rate = 0.164 (at node 1)
Minimum injected flit rate = 0.151 (at node 6)
Average injected flit rate = 0.164813
Maximum injected flit rate = 0.177 (at node 0)
Minimum accepted flit rate = 0.135 (at node 14)
Average accepted flit rate = 0.149812
Maximum accepted flit rate = 0.164 (at node 1)
Total number of injected packets = 2637
Total number of injected flits = 2637
Average injected packet length = 1
Total number of accepted packets = 2397
Total number of accepted flits = 2397
Average accepted packet length = 1
Total in-flight flits = 241 (0 measured)
===== Time: 2000 =====
Class 0:
Minimum packet latency = 7
Average packet latency = 88.1383
Maximum packet latency = 414
Minimum network latency = 8
Average network latency = 84.5414
Maximum network latency = 415
Slowest packet = 4044
Minimum flit latency = 8
Average flit latency = 84.5414
Maximum flit latency = 415
Slowest flit = 4044
Minimum fragmentation = 0
Average fragmentation = 0
Maximum fragmentation = 0
Minimum injected packet rate = 0.144 (at node 14)
Average injected packet rate = 0.163875
Maximum injected packet rate = 0.1715 (at node 13)
Minimum accepted packet rate = 0.142 (at node 14)
Average accepted packet rate = 0.154062
Maximum accepted packet rate = 0.1645 (at node 1)
Minimum injected flit rate = 0.144 (at node 14)
Average injected flit rate = 0.163875
Maximum injected flit rate = 0.1715 (at node 13)
Minimum accepted flit rate = 0.142 (at node 14)
Average accepted flit rate = 0.154062
Maximum accepted flit rate = 0.1645 (at node 1)
Total number of injected packets = 5244
Total number of injected flits = 5244
Average injected packet length = 1
Total number of accepted packets = 4930
Total number of accepted flits = 4930
Average accepted packet length = 1
Total in-flight flits = 318 (0 measured)
===== Time: 3000 =====
Class 0:
Minimum packet latency = 7
Average packet latency = 140.695
Maximum packet latency = 475
Minimum network latency = 8
Average network latency = 117.604
Maximum network latency = 476
Slowest packet = 4205
Minimum flit latency = 8
Average flit latency = 117.604
Maximum flit latency = 476
Slowest flit = 4205
Minimum fragmentation = 0
Average fragmentation = 0
Maximum fragmentation = 0
Minimum injected packet rate = 0.147 (at node 3)
Average injected packet rate = 0.165937
Maximum injected packet rate = 0.182 (at node 5)
Minimum accepted packet rate = 0.145 (at node 4)
Average accepted packet rate = 0.163875
Maximum accepted packet rate = 0.179 (at node 0)
Minimum injected flit rate = 0.147 (at node 3)
Average injected flit rate = 0.165937
Maximum injected flit rate = 0.182 (at node 5)
Minimum accepted flit rate = 0.145 (at node 4)
Average accepted flit rate = 0.163875
Maximum accepted flit rate = 0.179 (at node 0)
Total number of injected packets = 2655
Total number of injected flits = 2655
Average injected packet length = 1
Total number of accepted packets = 2622
Total number of accepted flits = 2622
Average accepted packet length = 1
Total in-flight flits = 353 (0 measured)
===== Time: 4000 =====
Class 0:
Minimum packet latency = 7
Average packet latency = 184.768
Maximum packet latency = 647
Minimum network latency = 8
Average network latency = 136.562
Maximum network latency = 648
Slowest packet = 8724
Minimum flit latency = 8
Average flit latency = 141.837
Maximum flit latency = 648
Slowest flit = 8724
Minimum fragmentation = 0
Average fragmentation = 0
Maximum fragmentation = 0
Minimum injected packet rate = 0.15 (at node 7)
Average injected packet rate = 0.16325
Maximum injected packet rate = 0.174 (at node 5)
Minimum accepted packet rate = 0.135 (at node 4)
Average accepted packet rate = 0.162688
Maximum accepted packet rate = 0.191 (at node 7)
Minimum injected flit rate = 0.15 (at node 7)
Average injected flit rate = 0.16325
Maximum injected flit rate = 0.174 (at node 5)
Minimum accepted flit rate = 0.135 (at node 4)
Average accepted flit rate = 0.162688
Maximum accepted flit rate = 0.191 (at node 7)
Total number of injected packets = 2612
Total number of injected flits = 2612
Average injected packet length = 1
Total number of accepted packets = 2603
Total number of accepted flits = 2603
Average accepted packet length = 1
Total in-flight flits = 362 (362 measured)
===== Time: 5000 =====
Class 0:
Minimum packet latency = 7
Average packet latency = 202.137
Maximum packet latency = 733
Minimum network latency = 8
Average network latency = 141.908
Maximum network latency = 659
Slowest packet = 8724
Minimum flit latency = 8
Average flit latency = 144.184
Maximum flit latency = 659
Slowest flit = 10877
Minimum fragmentation = 0
Average fragmentation = 0
Maximum fragmentation = 0
Minimum injected packet rate = 0.1565 (at node 7)
Average injected packet rate = 0.165
Maximum injected packet rate = 0.1745 (at node 4)
Minimum accepted packet rate = 0.1425 (at node 4)
Average accepted packet rate = 0.162656
Maximum accepted packet rate = 0.1845 (at node 7)
Minimum injected flit rate = 0.1565 (at node 7)
Average injected flit rate = 0.165
Maximum injected flit rate = 0.1745 (at node 4)
Minimum accepted flit rate = 0.1425 (at node 4)
Average accepted flit rate = 0.162656
Maximum accepted flit rate = 0.1845 (at node 7)
Total number of injected packets = 5280
Total number of injected flits = 5280
Average injected packet length = 1
Total number of accepted packets = 5205
Total number of accepted flits = 5205
Average accepted packet length = 1
Total in-flight flits = 430 (430 measured)
===== Time: 6000 =====
Class 0:
Minimum packet latency = 7
Average packet latency = 211.951
Maximum packet latency = 733
Minimum network latency = 8
Average network latency = 148.191
Maximum network latency = 659
Slowest packet = 8724
Minimum flit latency = 8
Average flit latency = 149.418
Maximum flit latency = 659
Slowest flit = 10877
Minimum fragmentation = 0
Average fragmentation = 0
Maximum fragmentation = 0
Minimum injected packet rate = 0.152667 (at node 11)
Average injected packet rate = 0.165104
Maximum injected packet rate = 0.176333 (at node 3)
Minimum accepted packet rate = 0.147333 (at node 4)
Average accepted packet rate = 0.163458
Maximum accepted packet rate = 0.178667 (at node 7)
Minimum injected flit rate = 0.152667 (at node 11)
Average injected flit rate = 0.165104
Maximum injected flit rate = 0.176333 (at node 3)
Minimum accepted flit rate = 0.147333 (at node 4)
Average accepted flit rate = 0.163458
Maximum accepted flit rate = 0.178667 (at node 7)
Total number of injected packets = 7925
Total number of injected flits = 7925
Average injected packet length = 1
Total number of accepted packets = 7846
Total number of accepted flits = 7846
Average accepted packet length = 1
Total in-flight flits = 434 (434 measured)
Draining remaining packets ...
Class 0:
Remaining flits: 14611 14738 14790 14824 14832 14833 14847 14868 14897 14905 [...] (402 flits)
Measured flits: 14611 14738 14790 14824 14832 14833 14847 14868 14897 14905 [...] (402 flits)
Class 0:
Remaining flits: 14738 14790 14832 14833 14847 14868 14897 14905 14908 14938 [...] (376 flits)
Measured flits: 14738 14790 14832 14833 14847 14868 14897 14905 14908 14938 [...] (376 flits)
Class 0:
Remaining flits: 14738 14790 14832 14847 14868 14897 14905 14908 14938 14944 [...] (357 flits)
Measured flits: 14738 14790 14832 14847 14868 14897 14905 14908 14938 14944 [...] (357 flits)
Class 0:
Remaining flits: 14738 14832 14847 14868 14905 14908 14938 14944 14951 14954 [...] (330 flits)
Measured flits: 14738 14832 14847 14868 14905 14908 14938 14944 14951 14954 [...] (330 flits)
Class 0:
Remaining flits: 14738 14832 14847 14868 14905 14908 14938 14944 14951 14954 [...] (302 flits)
Measured flits: 14738 14832 14847 14868 14905 14908 14938 14944 14951 14954 [...] (302 flits)
Class 0:
Remaining flits: 14738 14832 14847 14868 14905 14908 14938 14944 14951 14954 [...] (278 flits)
Measured flits: 14738 14832 14847 14868 14905 14908 14938 14944 14951 14954 [...] (278 flits)
Class 0:
Remaining flits: 14832 14847 14868 14908 14938 14944 14951 14954 14957 15020 [...] (256 flits)
Measured flits: 14832 14847 14868 14908 14938 14944 14951 14954 14957 15020 [...] (256 flits)
Class 0:
Remaining flits: 14832 14847 14868 14938 14944 14951 14954 14957 15020 15021 [...] (235 flits)
Measured flits: 14832 14847 14868 14938 14944 14951 14954 14957 15020 15021 [...] (235 flits)
Class 0:
Remaining flits: 14832 14847 14868 14938 14944 14954 14957 15020 15021 15044 [...] (219 flits)
Measured flits: 14832 14847 14868 14938 14944 14954 14957 15020 15021 15044 [...] (219 flits)
Class 0:
Remaining flits: 14832 14938 14944 14954 14957 15020 15021 15044 15120 15126 [...] (202 flits)
Measured flits: 14832 14938 14944 14954 14957 15020 15021 15044 15120 15126 [...] (202 flits)
Class 0:
Remaining flits: 14832 14938 14944 14954 14957 15020 15021 15044 15126 15137 [...] (186 flits)
Measured flits: 14832 14938 14944 14954 14957 15020 15021 15044 15126 15137 [...] (186 flits)
Class 0:
Remaining flits: 14832 14938 14944 14954 15020 15021 15044 15126 15137 15161 [...] (161 flits)
Measured flits: 14832 14938 14944 14954 15020 15021 15044 15126 15137 15161 [...] (161 flits)
Class 0:
Remaining flits: 14832 14938 14944 14954 15020 15021 15044 15126 15137 15161 [...] (144 flits)
Measured flits: 14832 14938 14944 14954 15020 15021 15044 15126 15137 15161 [...] (144 flits)
Class 0:
Remaining flits: 14832 14938 14944 14954 15020 15044 15126 15137 15161 15169 [...] (125 flits)
Measured flits: 14832 14938 14944 14954 15020 15044 15126 15137 15161 15169 [...] (125 flits)
Class 0:
Remaining flits: 14938 14944 14954 15020 15044 15137 15161 15169 15188 15241 [...] (105 flits)
Measured flits: 14938 14944 14954 15020 15044 15137 15161 15169 15188 15241 [...] (105 flits)
Class 0:
Remaining flits: 14938 14944 14954 15020 15044 15137 15161 15188 15241 15264 [...] (97 flits)
Measured flits: 14938 14944 14954 15020 15044 15137 15161 15188 15241 15264 [...] (97 flits)
Class 0:
Remaining flits: 14938 14944 15020 15044 15137 15161 15188 15241 15264 15274 [...] (87 flits)
Measured flits: 14938 14944 15020 15044 15137 15161 15188 15241 15264 15274 [...] (87 flits)
Class 0:
Remaining flits: 14938 14944 15044 15137 15161 15188 15241 15264 15274 15344 [...] (76 flits)
Measured flits: 14938 14944 15044 15137 15161 15188 15241 15264 15274 15344 [...] (76 flits)
Class 0:
Remaining flits: 14938 14944 15044 15137 15161 15188 15241 15264 15344 15351 [...] (69 flits)
Measured flits: 14938 14944 15044 15137 15161 15188 15241 15264 15344 15351 [...] (69 flits)
Class 0:
Remaining flits: 14938 15044 15137 15161 15188 15241 15264 15344 15351 15374 [...] (64 flits)
Measured flits: 14938 15044 15137 15161 15188 15241 15264 15344 15351 15374 [...] (64 flits)
Class 0:
Remaining flits: 15044 15137 15161 15241 15264 15344 15351 15374 15408 15431 [...] (55 flits)
Measured flits: 15044 15137 15161 15241 15264 15344 15351 15374 15408 15431 [...] (55 flits)
Class 0:
Remaining flits: 15044 15161 15241 15264 15344 15374 15408 15431 15456 15466 [...] (52 flits)
Measured flits: 15044 15161 15241 15264 15344 15374 15408 15431 15456 15466 [...] (52 flits)
Class 0:
Remaining flits: 15044 15161 15344 15374 15431 15466 15503 15510 15516 15519 [...] (42 flits)
Measured flits: 15044 15161 15344 15374 15431 15466 15503 15510 15516 15519 [...] (42 flits)
Class 0:
Remaining flits: 15044 15161 15344 15374 15431 15466 15503 15516 15519 15534 [...] (37 flits)
Measured flits: 15044 15161 15344 15374 15431 15466 15503 15516 15519 15534 [...] (37 flits)
Class 0:
Remaining flits: 15044 15161 15344 15374 15431 15466 15503 15516 15519 15534 [...] (34 flits)
Measured flits: 15044 15161 15344 15374 15431 15466 15503 15516 15519 15534 [...] (34 flits)
Class 0:
Remaining flits: 15044 15161 15344 15374 15431 15503 15516 15519 15572 15594 [...] (29 flits)
Measured flits: 15044 15161 15344 15374 15431 15503 15516 15519 15572 15594 [...] (29 flits)
Class 0:
Remaining flits: 15044 15161 15344 15374 15431 15516 15519 15572 15594 15609 [...] (22 flits)
Measured flits: 15044 15161 15344 15374 15431 15516 15519 15572 15594 15609 [...] (22 flits)
Class 0:
Remaining flits: 15044 15161 15344 15374 15431 15516 15519 15572 15594 15609 [...] (21 flits)
Measured flits: 15044 15161 15344 15374 15431 15516 15519 15572 15594 15609 [...] (21 flits)
Class 0:
Remaining flits: 15044 15161 15374 15516 15519 15572 15594 15609 15652 15662 [...] (19 flits)
Measured flits: 15044 15161 15374 15516 15519 15572 15594 15609 15652 15662 [...] (19 flits)
Class 0:
Remaining flits: 15044 15161 15374 15516 15519 15594 15609 15652 15662 15717 [...] (17 flits)
Measured flits: 15044 15161 15374 15516 15519 15594 15609 15652 15662 15717 [...] (17 flits)
Class 0:
Remaining flits: 15044 15161 15374 15516 15519 15594 15609 15652 15717 15718 [...] (16 flits)
Measured flits: 15044 15161 15374 15516 15519 15594 15609 15652 15717 15718 [...] (16 flits)
Class 0:
Remaining flits: 15044 15161 15374 15516 15519 15594 15652 15717 15718 15749 [...] (14 flits)
Measured flits: 15044 15161 15374 15516 15519 15594 15652 15717 15718 15749 [...] (14 flits)
Class 0:
Remaining flits: 15044 15161 15516 15519 15652 15717 15718 15749 15813 15815 [...] (12 flits)
Measured flits: 15044 15161 15516 15519 15652 15717 15718 15749 15813 15815 [...] (12 flits)
Class 0:
Remaining flits: 15044 15161 15516 15519 15717 15718 15749 15813 15815 15822 [...] (11 flits)
Measured flits: 15044 15161 15516 15519 15717 15718 15749 15813 15815 15822 [...] (11 flits)
Class 0:
Remaining flits: 15044 15161 15516 15519 15717 15718 15749 15813 15815 15822 [...] (11 flits)
Measured flits: 15044 15161 15516 15519 15717 15718 15749 15813 15815 15822 [...] (11 flits)
Class 0:
Remaining flits: 15044 15161 15516 15519 15717 15718 15749 15813 15815 15822 [...] (11 flits)
Measured flits: 15044 15161 15516 15519 15717 15718 15749 15813 15815 15822 [...] (11 flits)
Class 0:
Remaining flits: 15044 15161 15516 15519 15717 15718 15749 15813 15815 15822 [...] (11 flits)
Measured flits: 15044 15161 15516 15519 15717 15718 15749 15813 15815 15822 [...] (11 flits)
Class 0:
Remaining flits: 15044 15161 15516 15519 15717 15718 15749 15813 15815 15822 [...] (11 flits)
Measured flits: 15044 15161 15516 15519 15717 15718 15749 15813 15815 15822 [...] (11 flits)
Class 0:
Remaining flits: 15044 15161 15516 15519 15717 15718 15749 15813 15815 15822 [...] (11 flits)
Measured flits: 15044 15161 15516 15519 15717 15718 15749 15813 15815 15822 [...] (11 flits)
Class 0:
Remaining flits: 15044 15161 15516 15519 15717 15718 15749 15813 15815 15822 [...] (11 flits)
Measured flits: 15044 15161 15516 15519 15717 15718 15749 15813 15815 15822 [...] (11 flits)
Class 0:
Remaining flits: 15044 15161 15516 15519 15717 15718 15749 15813 15815 15822 [...] (11 flits)
Measured flits: 15044 15161 15516 15519 15717 15718 15749 15813 15815 15822 [...] (11 flits)
Class 0:
Remaining flits: 15044 15161 15516 15519 15717 15718 15749 15813 15815 15822 [...] (11 flits)
Measured flits: 15044 15161 15516 15519 15717 15718 15749 15813 15815 15822 [...] (11 flits)
Class 0:
Remaining flits: 15044 15161 15516 15519 15717 15718 15749 15813 15815 15822 [...] (11 flits)
Measured flits: 15044 15161 15516 15519 15717 15718 15749 15813 15815 15822 [...] (11 flits)
Class 0:
Remaining flits: 15044 15161 15516 15519 15717 15718 15749 15813 15815 15822 [...] (11 flits)
Measured flits: 15044 15161 15516 15519 15717 15718 15749 15813 15815 15822 [...] (11 flits)
Class 0:
Remaining flits: 15044 15161 15516 15519 15717 15718 15749 15813 15815 15822 [...] (11 flits)
Measured flits: 15044 15161 15516 15519 15717 15718 15749 15813 15815 15822 [...] (11 flits)
Class 0:
Remaining flits: 15044 15161 15516 15519 15717 15718 15749 15813 15815 15822 [...] (11 flits)
Measured flits: 15044 15161 15516 15519 15717 15718 15749 15813 15815 15822 [...] (11 flits)
Class 0:
Remaining flits: 15044 15161 15516 15519 15717 15718 15749 15813 15815 15822 [...] (11 flits)
Measured flits: 15044 15161 15516 15519 15717 15718 15749 15813 15815 15822 [...] (11 flits)
Class 0:
Remaining flits: 15044 15161 15516 15519 15717 15718 15749 15813 15815 15822 [...] (11 flits)
Measured flits: 15044 15161 15516 15519 15717 15718 15749 15813 15815 15822 [...] (11 flits)
Class 0:
Remaining flits: 15044 15161 15516 15519 15717 15718 15749 15813 15815 15822 [...] (11 flits)
Measured flits: 15044 15161 15516 15519 15717 15718 15749 15813 15815 15822 [...] (11 flits)
Class 0:
Remaining flits: 15044 15161 15516 15519 15717 15718 15749 15813 15815 15822 [...] (11 flits)
Measured flits: 15044 15161 15516 15519 15717 15718 15749 15813 15815 15822 [...] (11 flits)
Class 0:
Remaining flits: 15044 15161 15516 15519 15717 15718 15749 15813 15815 15822 [...] (11 flits)
Measured flits: 15044 15161 15516 15519 15717 15718 15749 15813 15815 15822 [...] (11 flits)
Class 0:
Remaining flits: 15044 15161 15516 15519 15717 15718 15749 15813 15815 15822 [...] (11 flits)
Measured flits: 15044 15161 15516 15519 15717 15718 15749 15813 15815 15822 [...] (11 flits)
Class 0:
Remaining flits: 15044 15161 15516 15519 15717 15718 15749 15813 15815 15822 [...] (11 flits)
Measured flits: 15044 15161 15516 15519 15717 15718 15749 15813 15815 15822 [...] (11 flits)
Class 0:
Remaining flits: 15044 15161 15516 15519 15717 15718 15749 15813 15815 15822 [...] (11 flits)
Measured flits: 15044 15161 15516 15519 15717 15718 15749 15813 15815 15822 [...] (11 flits)
Class 0:
Remaining flits: 15044 15161 15516 15519 15717 15718 15749 15813 15815 15822 [...] (11 flits)
Measured flits: 15044 15161 15516 15519 15717 15718 15749 15813 15815 15822 [...] (11 flits)
Class 0:
Remaining flits: 15044 15161 15516 15519 15717 15718 15749 15813 15815 15822 [...] (11 flits)
Measured flits: 15044 15161 15516 15519 15717 15718 15749 15813 15815 15822 [...] (11 flits)
Class 0:
Remaining flits: 15044 15161 15516 15519 15717 15718 15749 15813 15815 15822 [...] (11 flits)
Measured flits: 15044 15161 15516 15519 15717 15718 15749 15813 15815 15822 [...] (11 flits)
Class 0:
Remaining flits: 15044 15161 15516 15519 15717 15718 15749 15813 15815 15822 [...] (11 flits)
Measured flits: 15044 15161 15516 15519 15717 15718 15749 15813 15815 15822 [...] (11 flits)
Class 0:
Remaining flits: 15044 15161 15516 15519 15717 15718 15749 15813 15815 15822 [...] (11 flits)
Measured flits: 15044 15161 15516 15519 15717 15718 15749 15813 15815 15822 [...] (11 flits)
Class 0:
Remaining flits: 15044 15161 15516 15519 15717 15718 15749 15813 15815 15822 [...] (11 flits)
Measured flits: 15044 15161 15516 15519 15717 15718 15749 15813 15815 15822 [...] (11 flits)
Class 0:
Remaining flits: 15044 15161 15516 15519 15717 15718 15749 15813 15815 15822 [...] (11 flits)
Measured flits: 15044 15161 15516 15519 15717 15718 15749 15813 15815 15822 [...] (11 flits)
Class 0:
Remaining flits: 15044 15161 15516 15519 15717 15718 15749 15813 15815 15822 [...] (11 flits)
Measured flits: 15044 15161 15516 15519 15717 15718 15749 15813 15815 15822 [...] (11 flits)
Class 0:
Remaining flits: 15044 15161 15516 15519 15717 15718 15749 15813 15815 15822 [...] (11 flits)
Measured flits: 15044 15161 15516 15519 15717 15718 15749 15813 15815 15822 [...] (11 flits)
Class 0:
Remaining flits: 15044 15161 15516 15519 15717 15718 15749 15813 15815 15822 [...] (11 flits)
Measured flits: 15044 15161 15516 15519 15717 15718 15749 15813 15815 15822 [...] (11 flits)
Class 0:
Remaining flits: 15044 15161 15516 15519 15717 15718 15749 15813 15815 15822 [...] (11 flits)
Measured flits: 15044 15161 15516 15519 15717 15718 15749 15813 15815 15822 [...] (11 flits)
Class 0:
Remaining flits: 15044 15161 15516 15519 15717 15718 15749 15813 15815 15822 [...] (11 flits)
Measured flits: 15044 15161 15516 15519 15717 15718 15749 15813 15815 15822 [...] (11 flits)
Class 0:
Remaining flits: 15044 15161 15516 15519 15717 15718 15749 15813 15815 15822 [...] (11 flits)
Measured flits: 15044 15161 15516 15519 15717 15718 15749 15813 15815 15822 [...] (11 flits)
Class 0:
Remaining flits: 15044 15161 15516 15519 15717 15718 15749 15813 15815 15822 [...] (11 flits)
Measured flits: 15044 15161 15516 15519 15717 15718 15749 15813 15815 15822 [...] (11 flits)
Class 0:
Remaining flits: 15044 15161 15516 15519 15717 15718 15749 15813 15815 15822 [...] (11 flits)
Measured flits: 15044 15161 15516 15519 15717 15718 15749 15813 15815 15822 [...] (11 flits)
Class 0:
Remaining flits: 15044 15161 15516 15519 15717 15718 15749 15813 15815 15822 [...] (11 flits)
Measured flits: 15044 15161 15516 15519 15717 15718 15749 15813 15815 15822 [...] (11 flits)
Class 0:
Remaining flits: 15044 15161 15516 15519 15717 15718 15749 15813 15815 15822 [...] (11 flits)
Measured flits: 15044 15161 15516 15519 15717 15718 15749 15813 15815 15822 [...] (11 flits)
Class 0:
Remaining flits: 15044 15161 15516 15519 15717 15718 15749 15813 15815 15822 [...] (11 flits)
Measured flits: 15044 15161 15516 15519 15717 15718 15749 15813 15815 15822 [...] (11 flits)
Class 0:
Remaining flits: 15044 15161 15516 15519 15717 15718 15749 15813 15815 15822 [...] (11 flits)
Measured flits: 15044 15161 15516 15519 15717 15718 15749 15813 15815 15822 [...] (11 flits)
Class 0:
Remaining flits: 15044 15161 15516 15519 15717 15718 15749 15813 15815 15822 [...] (11 flits)
Measured flits: 15044 15161 15516 15519 15717 15718 15749 15813 15815 15822 [...] (11 flits)
Class 0:
Remaining flits: 15044 15161 15516 15519 15717 15718 15749 15813 15815 15822 [...] (11 flits)
Measured flits: 15044 15161 15516 15519 15717 15718 15749 15813 15815 15822 [...] (11 flits)
Class 0:
Remaining flits: 15044 15161 15516 15519 15717 15718 15749 15813 15815 15822 [...] (11 flits)
Measured flits: 15044 15161 15516 15519 15717 15718 15749 15813 15815 15822 [...] (11 flits)
Class 0:
Remaining flits: 15044 15161 15516 15519 15717 15718 15749 15813 15815 15822 [...] (11 flits)
Measured flits: 15044 15161 15516 15519 15717 15718 15749 15813 15815 15822 [...] (11 flits)
Class 0:
Remaining flits: 15044 15161 15516 15519 15717 15718 15749 15813 15815 15822 [...] (11 flits)
Measured flits: 15044 15161 15516 15519 15717 15718 15749 15813 15815 15822 [...] (11 flits)
Class 0:
Remaining flits: 15044 15161 15516 15519 15717 15718 15749 15813 15815 15822 [...] (11 flits)
Measured flits: 15044 15161 15516 15519 15717 15718 15749 15813 15815 15822 [...] (11 flits)
Class 0:
Remaining flits: 15044 15161 15516 15519 15717 15718 15749 15813 15815 15822 [...] (11 flits)
Measured flits: 15044 15161 15516 15519 15717 15718 15749 15813 15815 15822 [...] (11 flits)
Class 0:
Remaining flits: 15044 15161 15516 15519 15717 15718 15749 15813 15815 15822 [...] (11 flits)
Measured flits: 15044 15161 15516 15519 15717 15718 15749 15813 15815 15822 [...] (11 flits)
Class 0:
Remaining flits: 15044 15161 15516 15519 15717 15718 15749 15813 15815 15822 [...] (11 flits)
Measured flits: 15044 15161 15516 15519 15717 15718 15749 15813 15815 15822 [...] (11 flits)
Class 0:
Remaining flits: 15044 15161 15516 15519 15717 15718 15749 15813 15815 15822 [...] (11 flits)
Measured flits: 15044 15161 15516 15519 15717 15718 15749 15813 15815 15822 [...] (11 flits)
Class 0:
Remaining flits: 15044 15161 15516 15519 15717 15718 15749 15813 15815 15822 [...] (11 flits)
Measured flits: 15044 15161 15516 15519 15717 15718 15749 15813 15815 15822 [...] (11 flits)
Class 0:
Remaining flits: 15044 15161 15516 15519 15717 15718 15749 15813 15815 15822 [...] (11 flits)
Measured flits: 15044 15161 15516 15519 15717 15718 15749 15813 15815 15822 [...] (11 flits)
Class 0:
Remaining flits: 15044 15161 15516 15519 15717 15718 15749 15813 15815 15822 [...] (11 flits)
Measured flits: 15044 15161 15516 15519 15717 15718 15749 15813 15815 15822 [...] (11 flits)
Class 0:
Remaining flits: 15044 15161 15516 15519 15717 15718 15749 15813 15815 15822 [...] (11 flits)
Measured flits: 15044 15161 15516 15519 15717 15718 15749 15813 15815 15822 [...] (11 flits)
Class 0:
Remaining flits: 15044 15161 15516 15519 15717 15718 15749 15813 15815 15822 [...] (11 flits)
Measured flits: 15044 15161 15516 15519 15717 15718 15749 15813 15815 15822 [...] (11 flits)
Class 0:
Remaining flits: 15044 15161 15516 15519 15717 15718 15749 15813 15815 15822 [...] (11 flits)
Measured flits: 15044 15161 15516 15519 15717 15718 15749 15813 15815 15822 [...] (11 flits)
Class 0:
Remaining flits: 15044 15161 15516 15519 15717 15718 15749 15813 15815 15822 [...] (11 flits)
Measured flits: 15044 15161 15516 15519 15717 15718 15749 15813 15815 15822 [...] (11 flits)
Class 0:
Remaining flits: 15044 15161 15516 15519 15717 15718 15749 15813 15815 15822 [...] (11 flits)
Measured flits: 15044 15161 15516 15519 15717 15718 15749 15813 15815 15822 [...] (11 flits)
Class 0:
Remaining flits: 15044 15161 15516 15519 15717 15718 15749 15813 15815 15822 [...] (11 flits)
Measured flits: 15044 15161 15516 15519 15717 15718 15749 15813 15815 15822 [...] (11 flits)
Class 0:
Remaining flits: 15044 15161 15516 15519 15717 15718 15749 15813 15815 15822 [...] (11 flits)
Measured flits: 15044 15161 15516 15519 15717 15718 15749 15813 15815 15822 [...] (11 flits)
Class 0:
Remaining flits: 15044 15161 15516 15519 15717 15718 15749 15813 15815 15822 [...] (11 flits)
Measured flits: 15044 15161 15516 15519 15717 15718 15749 15813 15815 15822 [...] (11 flits)
Class 0:
Remaining flits: 15044 15161 15516 15519 15717 15718 15749 15813 15815 15822 [...] (11 flits)
Measured flits: 15044 15161 15516 15519 15717 15718 15749 15813 15815 15822 [...] (11 flits)
Class 0:
Remaining flits: 15044 15161 15516 15519 15717 15718 15749 15813 15815 15822 [...] (11 flits)
Measured flits: 15044 15161 15516 15519 15717 15718 15749 15813 15815 15822 [...] (11 flits)
Class 0:
Remaining flits: 15044 15161 15516 15519 15717 15718 15749 15813 15815 15822 [...] (11 flits)
Measured flits: 15044 15161 15516 15519 15717 15718 15749 15813 15815 15822 [...] (11 flits)
Class 0:
Remaining flits: 15044 15161 15516 15519 15717 15718 15749 15813 15815 15822 [...] (11 flits)
Measured flits: 15044 15161 15516 15519 15717 15718 15749 15813 15815 15822 [...] (11 flits)
Class 0:
Remaining flits: 15044 15161 15516 15519 15717 15718 15749 15813 15815 15822 [...] (11 flits)
Measured flits: 15044 15161 15516 15519 15717 15718 15749 15813 15815 15822 [...] (11 flits)
Class 0:
Remaining flits: 15044 15161 15516 15519 15717 15718 15749 15813 15815 15822 [...] (11 flits)
Measured flits: 15044 15161 15516 15519 15717 15718 15749 15813 15815 15822 [...] (11 flits)
Class 0:
Remaining flits: 15044 15161 15516 15519 15717 15718 15749 15813 15815 15822 [...] (11 flits)
Measured flits: 15044 15161 15516 15519 15717 15718 15749 15813 15815 15822 [...] (11 flits)
Time taken is 7000 cycles
====== Traffic class 0 ======

Total number of flits generated = 15832, changed lanes = 15502
Overall minimum packet latency = 7 (1 samples)
Overall average packet latency = 216.598 (1 samples)
Overall maximum packet latency = 733 (1 samples)
Overall minimum network latency = 8 (1 samples)
Overall average network latency = 151.36 (1 samples)
Overall maximum network latency = 659 (1 samples)
Overall minimum flit latency = 8 (1 samples)
Overall average flit latency = 152.389 (1 samples)
Overall maximum flit latency = 659 (1 samples)
Overall minimum fragmentation = 0 (1 samples)
Overall average fragmentation = 0 (1 samples)
Overall maximum fragmentation = 0 (1 samples)
Overall minimum injected packet rate = 0.152667 (1 samples)
Overall average injected packet rate = 0.165104 (1 samples)
Overall maximum injected packet rate = 0.176333 (1 samples)
Overall minimum accepted packet rate = 0.147333 (1 samples)
Overall average accepted packet rate = 0.163458 (1 samples)
Overall maximum accepted packet rate = 0.178667 (1 samples)
Overall minimum injected flit rate = 0.152667 (1 samples)
Overall average injected flit rate = 0.165104 (1 samples)
Overall maximum injected flit rate = 0.176333 (1 samples)
Overall minimum accepted flit rate = 0.147333 (1 samples)
Overall average accepted flit rate = 0.163458 (1 samples)
Overall maximum accepted flit rate = 0.178667 (1 samples)
Overall average injected packet size = 1 (1 samples)
Overall average accepted packet size = 1 (1 samples)
Overall average hops = 3.48711 (1 samples)
Overall throughput of the network (flits/cycle) = 5.27367
Overall throughput of the network (packets/cycle) = 5.27367
Total run time 4046.05
