make: Nothing to be done for 'all'.
Master: Running timer....
Master: Running SRC....
BEGIN Configuration File: ./examples/bitrev
// Topology

topology = mesh;
k = 4;
n = 2;

// Routing
routing_function = dor;

// Flow control
num_vcs     = 4;
vc_buf_size = 4;
wait_for_tail_credit = 0;

// Router architecture
vc_allocator = islip;
sw_allocator = islip;
alloc_iters  = 1;

credit_delay   = 1;
routing_delay  = 1;
vc_alloc_delay = 1;
sw_alloc_delay = 1;

input_speedup     = 1;
output_speedup    = 1;
internal_speedup  = 1.0;

vc_busy_when_full = 0;

// Traffic
traffic = uniform;
packet_size = 1;

// Simulation
sim_type = throughput;

injection_rate = 0.13;

END Configuration File: ./examples/bitrev
===== Time: 1000 =====
Class 0:
Minimum packet latency = 7
Average packet latency = 42.4672
Maximum packet latency = 134
Minimum network latency = 8
Average network latency = 43.4672
Maximum network latency = 135
Slowest packet = 1274
Minimum flit latency = 8
Average flit latency = 43.4672
Maximum flit latency = 135
Slowest flit = 1274
Minimum fragmentation = 0
Average fragmentation = 0
Maximum fragmentation = 0
Minimum injected packet rate = 0.109 (at node 9)
Average injected packet rate = 0.126812
Maximum injected packet rate = 0.136 (at node 2)
Minimum accepted packet rate = 0.105 (at node 14)
Average accepted packet rate = 0.121875
Maximum accepted packet rate = 0.138 (at node 2)
Minimum injected flit rate = 0.109 (at node 9)
Average injected flit rate = 0.126812
Maximum injected flit rate = 0.136 (at node 2)
Minimum accepted flit rate = 0.105 (at node 14)
Average accepted flit rate = 0.121875
Maximum accepted flit rate = 0.138 (at node 2)
Total number of injected packets = 2029
Total number of injected flits = 2029
Average injected packet length = 1
Total number of accepted packets = 1950
Total number of accepted flits = 1950
Average accepted packet length = 1
Total in-flight flits = 79 (0 measured)
===== Time: 2000 =====
Class 0:
Minimum packet latency = 7
Average packet latency = 43.0411
Maximum packet latency = 134
Minimum network latency = 8
Average network latency = 44.0411
Maximum network latency = 135
Slowest packet = 1274
Minimum flit latency = 8
Average flit latency = 44.0411
Maximum flit latency = 135
Slowest flit = 1274
Minimum fragmentation = 0
Average fragmentation = 0
Maximum fragmentation = 0
Minimum injected packet rate = 0.1125 (at node 7)
Average injected packet rate = 0.125594
Maximum injected packet rate = 0.132 (at node 13)
Minimum accepted packet rate = 0.1155 (at node 4)
Average accepted packet rate = 0.123156
Maximum accepted packet rate = 0.1365 (at node 8)
Minimum injected flit rate = 0.1125 (at node 7)
Average injected flit rate = 0.125594
Maximum injected flit rate = 0.132 (at node 13)
Minimum accepted flit rate = 0.1155 (at node 4)
Average accepted flit rate = 0.123156
Maximum accepted flit rate = 0.1365 (at node 8)
Total number of injected packets = 4019
Total number of injected flits = 4019
Average injected packet length = 1
Total number of accepted packets = 3941
Total number of accepted flits = 3941
Average accepted packet length = 1
Total in-flight flits = 78 (0 measured)
===== Time: 3000 =====
Class 0:
Minimum packet latency = 7
Average packet latency = 45.0329
Maximum packet latency = 140
Minimum network latency = 8
Average network latency = 46.0329
Maximum network latency = 141
Slowest packet = 4761
Minimum flit latency = 8
Average flit latency = 46.0329
Maximum flit latency = 141
Slowest flit = 4761
Minimum fragmentation = 0
Average fragmentation = 0
Maximum fragmentation = 0
Minimum injected packet rate = 0.117 (at node 0)
Average injected packet rate = 0.131562
Maximum injected packet rate = 0.145 (at node 6)
Minimum accepted packet rate = 0.112 (at node 4)
Average accepted packet rate = 0.129188
Maximum accepted packet rate = 0.149 (at node 7)
Minimum injected flit rate = 0.117 (at node 0)
Average injected flit rate = 0.131562
Maximum injected flit rate = 0.145 (at node 6)
Minimum accepted flit rate = 0.112 (at node 4)
Average accepted flit rate = 0.129188
Maximum accepted flit rate = 0.149 (at node 7)
Total number of injected packets = 2105
Total number of injected flits = 2105
Average injected packet length = 1
Total number of accepted packets = 2067
Total number of accepted flits = 2067
Average accepted packet length = 1
Total in-flight flits = 116 (0 measured)
===== Time: 4000 =====
Class 0:
Minimum packet latency = 7
Average packet latency = 47.1891
Maximum packet latency = 154
Minimum network latency = 8
Average network latency = 48.1891
Maximum network latency = 155
Slowest packet = 7393
Minimum flit latency = 8
Average flit latency = 48.8687
Maximum flit latency = 155
Slowest flit = 7393
Minimum fragmentation = 0
Average fragmentation = 0
Maximum fragmentation = 0
Minimum injected packet rate = 0.099 (at node 0)
Average injected packet rate = 0.130062
Maximum injected packet rate = 0.165 (at node 15)
Minimum accepted packet rate = 0.117 (at node 4)
Average accepted packet rate = 0.130875
Maximum accepted packet rate = 0.15 (at node 0)
Minimum injected flit rate = 0.099 (at node 0)
Average injected flit rate = 0.130062
Maximum injected flit rate = 0.165 (at node 15)
Minimum accepted flit rate = 0.117 (at node 4)
Average accepted flit rate = 0.130875
Maximum accepted flit rate = 0.15 (at node 0)
Total number of injected packets = 2081
Total number of injected flits = 2081
Average injected packet length = 1
Total number of accepted packets = 2094
Total number of accepted flits = 2094
Average accepted packet length = 1
Total in-flight flits = 103 (103 measured)
===== Time: 5000 =====
Class 0:
Minimum packet latency = 7
Average packet latency = 44.7236
Maximum packet latency = 154
Minimum network latency = 8
Average network latency = 45.7236
Maximum network latency = 155
Slowest packet = 7393
Minimum flit latency = 8
Average flit latency = 46.1358
Maximum flit latency = 155
Slowest flit = 7393
Minimum fragmentation = 0
Average fragmentation = 0
Maximum fragmentation = 0
Minimum injected packet rate = 0.1125 (at node 14)
Average injected packet rate = 0.128906
Maximum injected packet rate = 0.151 (at node 15)
Minimum accepted packet rate = 0.1115 (at node 4)
Average accepted packet rate = 0.129594
Maximum accepted packet rate = 0.1385 (at node 6)
Minimum injected flit rate = 0.1125 (at node 14)
Average injected flit rate = 0.128906
Maximum injected flit rate = 0.151 (at node 15)
Minimum accepted flit rate = 0.1115 (at node 4)
Average accepted flit rate = 0.129594
Maximum accepted flit rate = 0.1385 (at node 6)
Total number of injected packets = 4125
Total number of injected flits = 4125
Average injected packet length = 1
Total number of accepted packets = 4147
Total number of accepted flits = 4147
Average accepted packet length = 1
Total in-flight flits = 94 (94 measured)
===== Time: 6000 =====
Class 0:
Minimum packet latency = 7
Average packet latency = 44.5411
Maximum packet latency = 154
Minimum network latency = 8
Average network latency = 45.5411
Maximum network latency = 155
Slowest packet = 7393
Minimum flit latency = 8
Average flit latency = 45.8177
Maximum flit latency = 155
Slowest flit = 7393
Minimum fragmentation = 0
Average fragmentation = 0
Maximum fragmentation = 0
Minimum injected packet rate = 0.119333 (at node 14)
Average injected packet rate = 0.129646
Maximum injected packet rate = 0.147 (at node 15)
Minimum accepted packet rate = 0.113333 (at node 4)
Average accepted packet rate = 0.130292
Maximum accepted packet rate = 0.141333 (at node 7)
Minimum injected flit rate = 0.119333 (at node 14)
Average injected flit rate = 0.129646
Maximum injected flit rate = 0.147 (at node 15)
Minimum accepted flit rate = 0.113333 (at node 4)
Average accepted flit rate = 0.130292
Maximum accepted flit rate = 0.141333 (at node 7)
Total number of injected packets = 6223
Total number of injected flits = 6223
Average injected packet length = 1
Total number of accepted packets = 6254
Total number of accepted flits = 6254
Average accepted packet length = 1
Total in-flight flits = 85 (85 measured)
Draining remaining packets ...
Class 0:
Remaining flits: 12128 12197 12226 12236 12237 12239 12240 12245 12246 12248 [...] (63 flits)
Measured flits: 12128 12197 12226 12236 12237 12239 12240 12245 12246 12248 [...] (63 flits)
Class 0:
Remaining flits: 12226 12236 12245 12246 12254 12257 12262 12265 12272 12276 [...] (46 flits)
Measured flits: 12226 12236 12245 12246 12254 12257 12262 12265 12272 12276 [...] (46 flits)
Class 0:
Remaining flits: 12226 12245 12246 12254 12257 12262 12265 12272 12288 12302 [...] (34 flits)
Measured flits: 12226 12245 12246 12254 12257 12262 12265 12272 12288 12302 [...] (34 flits)
Class 0:
Remaining flits: 12254 12257 12272 12310 12317 12318 12319 12320 12321 12326 [...] (21 flits)
Measured flits: 12254 12257 12272 12310 12317 12318 12319 12320 12321 12326 [...] (21 flits)
Class 0:
Remaining flits: 12257 12318 12319 12320 12321 12328 12330 12335 12338 12343 [...] (12 flits)
Measured flits: 12257 12318 12319 12320 12321 12328 12330 12335 12338 12343 [...] (12 flits)
Class 0:
Remaining flits: 12320 12335 12338 12343 12346 (5 flits)
Measured flits: 12320 12335 12338 12343 12346 (5 flits)
Class 0:
Remaining flits: 12335 12338 12346 (3 flits)
Measured flits: 12335 12338 12346 (3 flits)
Class 0:
Remaining flits: (0 flits)
Measured flits: (0 flits)
Class 0:
Remaining flits: (0 flits)
Measured flits: (0 flits)
Class 0:
Remaining flits: (0 flits)
Measured flits: (0 flits)
Class 0:
Remaining flits: (0 flits)
Measured flits: (0 flits)
Class 0:
Remaining flits: (0 flits)
Measured flits: (0 flits)
Class 0:
Remaining flits: (0 flits)
Measured flits: (0 flits)
Class 0:
Remaining flits: (0 flits)
Measured flits: (0 flits)
Class 0:
Remaining flits: (0 flits)
Measured flits: (0 flits)
Class 0:
Remaining flits: (0 flits)
Measured flits: (0 flits)
Class 0:
Remaining flits: (0 flits)
Measured flits: (0 flits)
Class 0:
Remaining flits: (0 flits)
Measured flits: (0 flits)
Class 0:
Remaining flits: (0 flits)
Measured flits: (0 flits)
Class 0:
Remaining flits: (0 flits)
Measured flits: (0 flits)
Class 0:
Remaining flits: (0 flits)
Measured flits: (0 flits)
Class 0:
Remaining flits: (0 flits)
Measured flits: (0 flits)
Class 0:
Remaining flits: (0 flits)
Measured flits: (0 flits)
Class 0:
Remaining flits: (0 flits)
Measured flits: (0 flits)
Class 0:
Remaining flits: (0 flits)
Measured flits: (0 flits)
Class 0:
Remaining flits: (0 flits)
Measured flits: (0 flits)
Class 0:
Remaining flits: (0 flits)
Measured flits: (0 flits)
Class 0:
Remaining flits: (0 flits)
Measured flits: (0 flits)
Class 0:
Remaining flits: (0 flits)
Measured flits: (0 flits)
Class 0:
Remaining flits: (0 flits)
Measured flits: (0 flits)
Class 0:
Remaining flits: (0 flits)
Measured flits: (0 flits)
Class 0:
Remaining flits: (0 flits)
Measured flits: (0 flits)
Class 0:
Remaining flits: (0 flits)
Measured flits: (0 flits)
Class 0:
Remaining flits: (0 flits)
Measured flits: (0 flits)
Class 0:
Remaining flits: (0 flits)
Measured flits: (0 flits)
Class 0:
Remaining flits: (0 flits)
Measured flits: (0 flits)
Class 0:
Remaining flits: (0 flits)
Measured flits: (0 flits)
Class 0:
Remaining flits: (0 flits)
Measured flits: (0 flits)
Class 0:
Remaining flits: (0 flits)
Measured flits: (0 flits)
Class 0:
Remaining flits: (0 flits)
Measured flits: (0 flits)
Class 0:
Remaining flits: (0 flits)
Measured flits: (0 flits)
Class 0:
Remaining flits: (0 flits)
Measured flits: (0 flits)
Class 0:
Remaining flits: (0 flits)
Measured flits: (0 flits)
Class 0:
Remaining flits: (0 flits)
Measured flits: (0 flits)
Class 0:
Remaining flits: (0 flits)
Measured flits: (0 flits)
Class 0:
Remaining flits: (0 flits)
Measured flits: (0 flits)
Class 0:
Remaining flits: (0 flits)
Measured flits: (0 flits)
Class 0:
Remaining flits: (0 flits)
Measured flits: (0 flits)
Class 0:
Remaining flits: (0 flits)
Measured flits: (0 flits)
Class 0:
Remaining flits: (0 flits)
Measured flits: (0 flits)
Class 0:
Remaining flits: (0 flits)
Measured flits: (0 flits)
Class 0:
Remaining flits: (0 flits)
Measured flits: (0 flits)
Class 0:
Remaining flits: (0 flits)
Measured flits: (0 flits)
Class 0:
Remaining flits: (0 flits)
Measured flits: (0 flits)
Class 0:
Remaining flits: (0 flits)
Measured flits: (0 flits)
Class 0:
Remaining flits: (0 flits)
Measured flits: (0 flits)
Class 0:
Remaining flits: (0 flits)
Measured flits: (0 flits)
Class 0:
Remaining flits: (0 flits)
Measured flits: (0 flits)
Class 0:
Remaining flits: (0 flits)
Measured flits: (0 flits)
Class 0:
Remaining flits: (0 flits)
Measured flits: (0 flits)
Class 0:
Remaining flits: (0 flits)
Measured flits: (0 flits)
Class 0:
Remaining flits: (0 flits)
Measured flits: (0 flits)
Class 0:
Remaining flits: (0 flits)
Measured flits: (0 flits)
Class 0:
Remaining flits: (0 flits)
Measured flits: (0 flits)
Class 0:
Remaining flits: (0 flits)
Measured flits: (0 flits)
Class 0:
Remaining flits: (0 flits)
Measured flits: (0 flits)
Class 0:
Remaining flits: (0 flits)
Measured flits: (0 flits)
Class 0:
Remaining flits: (0 flits)
Measured flits: (0 flits)
Class 0:
Remaining flits: (0 flits)
Measured flits: (0 flits)
Class 0:
Remaining flits: (0 flits)
Measured flits: (0 flits)
Class 0:
Remaining flits: (0 flits)
Measured flits: (0 flits)
Class 0:
Remaining flits: (0 flits)
Measured flits: (0 flits)
Class 0:
Remaining flits: (0 flits)
Measured flits: (0 flits)
Class 0:
Remaining flits: (0 flits)
Measured flits: (0 flits)
Class 0:
Remaining flits: (0 flits)
Measured flits: (0 flits)
Class 0:
Remaining flits: (0 flits)
Measured flits: (0 flits)
Class 0:
Remaining flits: (0 flits)
Measured flits: (0 flits)
Class 0:
Remaining flits: (0 flits)
Measured flits: (0 flits)
Class 0:
Remaining flits: (0 flits)
Measured flits: (0 flits)
Class 0:
Remaining flits: (0 flits)
Measured flits: (0 flits)
Class 0:
Remaining flits: (0 flits)
Measured flits: (0 flits)
Class 0:
Remaining flits: (0 flits)
Measured flits: (0 flits)
Class 0:
Remaining flits: (0 flits)
Measured flits: (0 flits)
Class 0:
Remaining flits: (0 flits)
Measured flits: (0 flits)
Class 0:
Remaining flits: (0 flits)
Measured flits: (0 flits)
Class 0:
Remaining flits: (0 flits)
Measured flits: (0 flits)
Class 0:
Remaining flits: (0 flits)
Measured flits: (0 flits)
Class 0:
Remaining flits: (0 flits)
Measured flits: (0 flits)
Class 0:
Remaining flits: (0 flits)
Measured flits: (0 flits)
Class 0:
Remaining flits: (0 flits)
Measured flits: (0 flits)
Class 0:
Remaining flits: (0 flits)
Measured flits: (0 flits)
Class 0:
Remaining flits: (0 flits)
Measured flits: (0 flits)
Class 0:
Remaining flits: (0 flits)
Measured flits: (0 flits)
Class 0:
Remaining flits: (0 flits)
Measured flits: (0 flits)
Class 0:
Remaining flits: (0 flits)
Measured flits: (0 flits)
Class 0:
Remaining flits: (0 flits)
Measured flits: (0 flits)
Class 0:
Remaining flits: (0 flits)
Measured flits: (0 flits)
Class 0:
Remaining flits: (0 flits)
Measured flits: (0 flits)
Class 0:
Remaining flits: (0 flits)
Measured flits: (0 flits)
Class 0:
Remaining flits: (0 flits)
Measured flits: (0 flits)
Class 0:
Remaining flits: (0 flits)
Measured flits: (0 flits)
Time taken is 7000 cycles
====== Traffic class 0 ======

Total number of flits generated = 12347, changed lanes = 11922
Overall minimum packet latency = 7 (1 samples)
Overall average packet latency = 44.7143 (1 samples)
Overall maximum packet latency = 154 (1 samples)
Overall minimum network latency = 8 (1 samples)
Overall average network latency = 45.7143 (1 samples)
Overall maximum network latency = 155 (1 samples)
Overall minimum flit latency = 8 (1 samples)
Overall average flit latency = 45.9841 (1 samples)
Overall maximum flit latency = 155 (1 samples)
Overall minimum fragmentation = 0 (1 samples)
Overall average fragmentation = 0 (1 samples)
Overall maximum fragmentation = 0 (1 samples)
Overall minimum injected packet rate = 0.119333 (1 samples)
Overall average injected packet rate = 0.129646 (1 samples)
Overall maximum injected packet rate = 0.147 (1 samples)
Overall minimum accepted packet rate = 0.113333 (1 samples)
Overall average accepted packet rate = 0.130292 (1 samples)
Overall maximum accepted packet rate = 0.141333 (1 samples)
Overall minimum injected flit rate = 0.119333 (1 samples)
Overall average injected flit rate = 0.129646 (1 samples)
Overall maximum injected flit rate = 0.147 (1 samples)
Overall minimum accepted flit rate = 0.113333 (1 samples)
Overall average accepted flit rate = 0.130292 (1 samples)
Overall maximum accepted flit rate = 0.141333 (1 samples)
Overall average injected packet size = 1 (1 samples)
Overall average accepted packet size = 1 (1 samples)
Overall average hops = 3.51245 (1 samples)
Overall throughput of the network (flits/cycle) = 4.11567
Overall throughput of the network (packets/cycle) = 4.11567
Total run time 47.838
