make: Nothing to be done for 'all'.
Master: Running timer....
Master: Running SRC....
BEGIN Configuration File: ./examples/bitrev
// Topology

topology = mesh;
k = 4;
n = 2;

// Routing
routing_function = dor;

// Flow control
num_vcs     = 4;
vc_buf_size = 4;
wait_for_tail_credit = 0;

// Router architecture
vc_allocator = islip;
sw_allocator = islip;
alloc_iters  = 1;

credit_delay   = 1;
routing_delay  = 1;
vc_alloc_delay = 1;
sw_alloc_delay = 1;

input_speedup     = 1;
output_speedup    = 1;
internal_speedup  = 1.0;

vc_busy_when_full = 0;

// Traffic
traffic = uniform;
packet_size = 1;

// Simulation
sim_type = throughput;

injection_rate = 0.09;

END Configuration File: ./examples/bitrev
===== Time: 1000 =====
Class 0:
Minimum packet latency = 7
Average packet latency = 35.5206
Maximum packet latency = 139
Minimum network latency = 8
Average network latency = 36.5206
Maximum network latency = 140
Slowest packet = 1104
Minimum flit latency = 8
Average flit latency = 36.5206
Maximum flit latency = 140
Slowest flit = 1104
Minimum fragmentation = 0
Average fragmentation = 0
Maximum fragmentation = 0
Minimum injected packet rate = 0.074 (at node 8)
Average injected packet rate = 0.085875
Maximum injected packet rate = 0.097 (at node 4)
Minimum accepted packet rate = 0.071 (at node 11)
Average accepted packet rate = 0.0834375
Maximum accepted packet rate = 0.095 (at node 15)
Minimum injected flit rate = 0.074 (at node 8)
Average injected flit rate = 0.085875
Maximum injected flit rate = 0.097 (at node 4)
Minimum accepted flit rate = 0.071 (at node 11)
Average accepted flit rate = 0.0834375
Maximum accepted flit rate = 0.095 (at node 15)
Total number of injected packets = 1374
Total number of injected flits = 1374
Average injected packet length = 1
Total number of accepted packets = 1335
Total number of accepted flits = 1335
Average accepted packet length = 1
Total in-flight flits = 39 (0 measured)
===== Time: 2000 =====
Class 0:
Minimum packet latency = 7
Average packet latency = 35.5915
Maximum packet latency = 139
Minimum network latency = 8
Average network latency = 36.5915
Maximum network latency = 140
Slowest packet = 1104
Minimum flit latency = 8
Average flit latency = 36.5915
Maximum flit latency = 140
Slowest flit = 1104
Minimum fragmentation = 0
Average fragmentation = 0
Maximum fragmentation = 0
Minimum injected packet rate = 0.0765 (at node 7)
Average injected packet rate = 0.0856563
Maximum injected packet rate = 0.0945 (at node 4)
Minimum accepted packet rate = 0.0745 (at node 14)
Average accepted packet rate = 0.084
Maximum accepted packet rate = 0.093 (at node 15)
Minimum injected flit rate = 0.0765 (at node 7)
Average injected flit rate = 0.0856563
Maximum injected flit rate = 0.0945 (at node 4)
Minimum accepted flit rate = 0.0745 (at node 14)
Average accepted flit rate = 0.084
Maximum accepted flit rate = 0.093 (at node 15)
Total number of injected packets = 2741
Total number of injected flits = 2741
Average injected packet length = 1
Total number of accepted packets = 2688
Total number of accepted flits = 2688
Average accepted packet length = 1
Total in-flight flits = 53 (0 measured)
===== Time: 3000 =====
Class 0:
Minimum packet latency = 7
Average packet latency = 37.2384
Maximum packet latency = 123
Minimum network latency = 8
Average network latency = 38.2384
Maximum network latency = 124
Slowest packet = 3989
Minimum flit latency = 8
Average flit latency = 38.2384
Maximum flit latency = 124
Slowest flit = 3989
Minimum fragmentation = 0
Average fragmentation = 0
Maximum fragmentation = 0
Minimum injected packet rate = 0.084 (at node 0)
Average injected packet rate = 0.092375
Maximum injected packet rate = 0.105 (at node 6)
Minimum accepted packet rate = 0.072 (at node 4)
Average accepted packet rate = 0.09175
Maximum accepted packet rate = 0.113 (at node 8)
Minimum injected flit rate = 0.084 (at node 0)
Average injected flit rate = 0.092375
Maximum injected flit rate = 0.105 (at node 6)
Minimum accepted flit rate = 0.072 (at node 4)
Average accepted flit rate = 0.09175
Maximum accepted flit rate = 0.113 (at node 8)
Total number of injected packets = 1478
Total number of injected flits = 1478
Average injected packet length = 1
Total number of accepted packets = 1468
Total number of accepted flits = 1468
Average accepted packet length = 1
Total in-flight flits = 63 (0 measured)
===== Time: 4000 =====
Class 0:
Minimum packet latency = 7
Average packet latency = 38.1696
Maximum packet latency = 112
Minimum network latency = 8
Average network latency = 39.1696
Maximum network latency = 113
Slowest packet = 4338
Minimum flit latency = 8
Average flit latency = 39.5762
Maximum flit latency = 113
Slowest flit = 4338
Minimum fragmentation = 0
Average fragmentation = 0
Maximum fragmentation = 0
Minimum injected packet rate = 0.068 (at node 0)
Average injected packet rate = 0.0895
Maximum injected packet rate = 0.108 (at node 15)
Minimum accepted packet rate = 0.071 (at node 4)
Average accepted packet rate = 0.0898125
Maximum accepted packet rate = 0.105 (at node 7)
Minimum injected flit rate = 0.068 (at node 0)
Average injected flit rate = 0.0895
Maximum injected flit rate = 0.108 (at node 15)
Minimum accepted flit rate = 0.071 (at node 4)
Average accepted flit rate = 0.0898125
Maximum accepted flit rate = 0.105 (at node 7)
Total number of injected packets = 1432
Total number of injected flits = 1432
Average injected packet length = 1
Total number of accepted packets = 1437
Total number of accepted flits = 1437
Average accepted packet length = 1
Total in-flight flits = 58 (58 measured)
===== Time: 5000 =====
Class 0:
Minimum packet latency = 7
Average packet latency = 37.4181
Maximum packet latency = 112
Minimum network latency = 8
Average network latency = 38.4181
Maximum network latency = 113
Slowest packet = 4338
Minimum flit latency = 8
Average flit latency = 38.64
Maximum flit latency = 113
Slowest flit = 4338
Minimum fragmentation = 0
Average fragmentation = 0
Maximum fragmentation = 0
Minimum injected packet rate = 0.0785 (at node 3)
Average injected packet rate = 0.0887813
Maximum injected packet rate = 0.1055 (at node 15)
Minimum accepted packet rate = 0.075 (at node 4)
Average accepted packet rate = 0.0889687
Maximum accepted packet rate = 0.0995 (at node 2)
Minimum injected flit rate = 0.0785 (at node 3)
Average injected flit rate = 0.0887813
Maximum injected flit rate = 0.1055 (at node 15)
Minimum accepted flit rate = 0.075 (at node 4)
Average accepted flit rate = 0.0889687
Maximum accepted flit rate = 0.0995 (at node 2)
Total number of injected packets = 2841
Total number of injected flits = 2841
Average injected packet length = 1
Total number of accepted packets = 2847
Total number of accepted flits = 2847
Average accepted packet length = 1
Total in-flight flits = 57 (57 measured)
===== Time: 6000 =====
Class 0:
Minimum packet latency = 7
Average packet latency = 37.6184
Maximum packet latency = 112
Minimum network latency = 8
Average network latency = 38.6184
Maximum network latency = 113
Slowest packet = 8201
Minimum flit latency = 8
Average flit latency = 38.7623
Maximum flit latency = 113
Slowest flit = 4338
Minimum fragmentation = 0
Average fragmentation = 0
Maximum fragmentation = 0
Minimum injected packet rate = 0.0836667 (at node 3)
Average injected packet rate = 0.0892292
Maximum injected packet rate = 0.104 (at node 15)
Minimum accepted packet rate = 0.076 (at node 4)
Average accepted packet rate = 0.0895833
Maximum accepted packet rate = 0.0993333 (at node 0)
Minimum injected flit rate = 0.0836667 (at node 3)
Average injected flit rate = 0.0892292
Maximum injected flit rate = 0.104 (at node 15)
Minimum accepted flit rate = 0.076 (at node 4)
Average accepted flit rate = 0.0895833
Maximum accepted flit rate = 0.0993333 (at node 0)
Total number of injected packets = 4283
Total number of injected flits = 4283
Average injected packet length = 1
Total number of accepted packets = 4300
Total number of accepted flits = 4300
Average accepted packet length = 1
Total in-flight flits = 46 (46 measured)
Draining remaining packets ...
Class 0:
Remaining flits: 8412 8438 8440 8441 8451 8452 8454 8461 8467 8468 [...] (38 flits)
Measured flits: 8412 8438 8440 8441 8451 8452 8454 8461 8467 8468 [...] (38 flits)
Class 0:
Remaining flits: 8440 8452 8470 8472 8476 8478 8479 8480 8481 8484 [...] (24 flits)
Measured flits: 8440 8452 8470 8472 8476 8478 8479 8480 8481 8484 [...] (24 flits)
Class 0:
Remaining flits: 8470 8479 8485 8487 8488 8490 8491 8493 8494 8495 [...] (13 flits)
Measured flits: 8470 8479 8485 8487 8488 8490 8491 8493 8494 8495 [...] (13 flits)
Class 0:
Remaining flits: 8485 8488 8490 8494 8495 8499 (6 flits)
Measured flits: 8485 8488 8490 8494 8495 8499 (6 flits)
Class 0:
Remaining flits: 8485 8488 (2 flits)
Measured flits: 8485 8488 (2 flits)
Class 0:
Remaining flits: 8485 (1 flits)
Measured flits: 8485 (1 flits)
Class 0:
Remaining flits: (0 flits)
Measured flits: (0 flits)
Class 0:
Remaining flits: (0 flits)
Measured flits: (0 flits)
Class 0:
Remaining flits: (0 flits)
Measured flits: (0 flits)
Class 0:
Remaining flits: (0 flits)
Measured flits: (0 flits)
Class 0:
Remaining flits: (0 flits)
Measured flits: (0 flits)
Class 0:
Remaining flits: (0 flits)
Measured flits: (0 flits)
Class 0:
Remaining flits: (0 flits)
Measured flits: (0 flits)
Class 0:
Remaining flits: (0 flits)
Measured flits: (0 flits)
Class 0:
Remaining flits: (0 flits)
Measured flits: (0 flits)
Class 0:
Remaining flits: (0 flits)
Measured flits: (0 flits)
Class 0:
Remaining flits: (0 flits)
Measured flits: (0 flits)
Class 0:
Remaining flits: (0 flits)
Measured flits: (0 flits)
Class 0:
Remaining flits: (0 flits)
Measured flits: (0 flits)
Class 0:
Remaining flits: (0 flits)
Measured flits: (0 flits)
Class 0:
Remaining flits: (0 flits)
Measured flits: (0 flits)
Class 0:
Remaining flits: (0 flits)
Measured flits: (0 flits)
Class 0:
Remaining flits: (0 flits)
Measured flits: (0 flits)
Class 0:
Remaining flits: (0 flits)
Measured flits: (0 flits)
Class 0:
Remaining flits: (0 flits)
Measured flits: (0 flits)
Class 0:
Remaining flits: (0 flits)
Measured flits: (0 flits)
Class 0:
Remaining flits: (0 flits)
Measured flits: (0 flits)
Class 0:
Remaining flits: (0 flits)
Measured flits: (0 flits)
Class 0:
Remaining flits: (0 flits)
Measured flits: (0 flits)
Class 0:
Remaining flits: (0 flits)
Measured flits: (0 flits)
Class 0:
Remaining flits: (0 flits)
Measured flits: (0 flits)
Class 0:
Remaining flits: (0 flits)
Measured flits: (0 flits)
Class 0:
Remaining flits: (0 flits)
Measured flits: (0 flits)
Class 0:
Remaining flits: (0 flits)
Measured flits: (0 flits)
Class 0:
Remaining flits: (0 flits)
Measured flits: (0 flits)
Class 0:
Remaining flits: (0 flits)
Measured flits: (0 flits)
Class 0:
Remaining flits: (0 flits)
Measured flits: (0 flits)
Class 0:
Remaining flits: (0 flits)
Measured flits: (0 flits)
Class 0:
Remaining flits: (0 flits)
Measured flits: (0 flits)
Class 0:
Remaining flits: (0 flits)
Measured flits: (0 flits)
Class 0:
Remaining flits: (0 flits)
Measured flits: (0 flits)
Class 0:
Remaining flits: (0 flits)
Measured flits: (0 flits)
Class 0:
Remaining flits: (0 flits)
Measured flits: (0 flits)
Class 0:
Remaining flits: (0 flits)
Measured flits: (0 flits)
Class 0:
Remaining flits: (0 flits)
Measured flits: (0 flits)
Class 0:
Remaining flits: (0 flits)
Measured flits: (0 flits)
Class 0:
Remaining flits: (0 flits)
Measured flits: (0 flits)
Class 0:
Remaining flits: (0 flits)
Measured flits: (0 flits)
Class 0:
Remaining flits: (0 flits)
Measured flits: (0 flits)
Class 0:
Remaining flits: (0 flits)
Measured flits: (0 flits)
Class 0:
Remaining flits: (0 flits)
Measured flits: (0 flits)
Class 0:
Remaining flits: (0 flits)
Measured flits: (0 flits)
Class 0:
Remaining flits: (0 flits)
Measured flits: (0 flits)
Class 0:
Remaining flits: (0 flits)
Measured flits: (0 flits)
Class 0:
Remaining flits: (0 flits)
Measured flits: (0 flits)
Class 0:
Remaining flits: (0 flits)
Measured flits: (0 flits)
Class 0:
Remaining flits: (0 flits)
Measured flits: (0 flits)
Class 0:
Remaining flits: (0 flits)
Measured flits: (0 flits)
Class 0:
Remaining flits: (0 flits)
Measured flits: (0 flits)
Class 0:
Remaining flits: (0 flits)
Measured flits: (0 flits)
Class 0:
Remaining flits: (0 flits)
Measured flits: (0 flits)
Class 0:
Remaining flits: (0 flits)
Measured flits: (0 flits)
Class 0:
Remaining flits: (0 flits)
Measured flits: (0 flits)
Class 0:
Remaining flits: (0 flits)
Measured flits: (0 flits)
Class 0:
Remaining flits: (0 flits)
Measured flits: (0 flits)
Class 0:
Remaining flits: (0 flits)
Measured flits: (0 flits)
Class 0:
Remaining flits: (0 flits)
Measured flits: (0 flits)
Class 0:
Remaining flits: (0 flits)
Measured flits: (0 flits)
Class 0:
Remaining flits: (0 flits)
Measured flits: (0 flits)
Class 0:
Remaining flits: (0 flits)
Measured flits: (0 flits)
Class 0:
Remaining flits: (0 flits)
Measured flits: (0 flits)
Class 0:
Remaining flits: (0 flits)
Measured flits: (0 flits)
Class 0:
Remaining flits: (0 flits)
Measured flits: (0 flits)
Class 0:
Remaining flits: (0 flits)
Measured flits: (0 flits)
Class 0:
Remaining flits: (0 flits)
Measured flits: (0 flits)
Class 0:
Remaining flits: (0 flits)
Measured flits: (0 flits)
Class 0:
Remaining flits: (0 flits)
Measured flits: (0 flits)
Class 0:
Remaining flits: (0 flits)
Measured flits: (0 flits)
Class 0:
Remaining flits: (0 flits)
Measured flits: (0 flits)
Class 0:
Remaining flits: (0 flits)
Measured flits: (0 flits)
Class 0:
Remaining flits: (0 flits)
Measured flits: (0 flits)
Class 0:
Remaining flits: (0 flits)
Measured flits: (0 flits)
Class 0:
Remaining flits: (0 flits)
Measured flits: (0 flits)
Class 0:
Remaining flits: (0 flits)
Measured flits: (0 flits)
Class 0:
Remaining flits: (0 flits)
Measured flits: (0 flits)
Class 0:
Remaining flits: (0 flits)
Measured flits: (0 flits)
Class 0:
Remaining flits: (0 flits)
Measured flits: (0 flits)
Class 0:
Remaining flits: (0 flits)
Measured flits: (0 flits)
Class 0:
Remaining flits: (0 flits)
Measured flits: (0 flits)
Class 0:
Remaining flits: (0 flits)
Measured flits: (0 flits)
Class 0:
Remaining flits: (0 flits)
Measured flits: (0 flits)
Class 0:
Remaining flits: (0 flits)
Measured flits: (0 flits)
Class 0:
Remaining flits: (0 flits)
Measured flits: (0 flits)
Class 0:
Remaining flits: (0 flits)
Measured flits: (0 flits)
Class 0:
Remaining flits: (0 flits)
Measured flits: (0 flits)
Class 0:
Remaining flits: (0 flits)
Measured flits: (0 flits)
Class 0:
Remaining flits: (0 flits)
Measured flits: (0 flits)
Class 0:
Remaining flits: (0 flits)
Measured flits: (0 flits)
Class 0:
Remaining flits: (0 flits)
Measured flits: (0 flits)
Class 0:
Remaining flits: (0 flits)
Measured flits: (0 flits)
Class 0:
Remaining flits: (0 flits)
Measured flits: (0 flits)
Time taken is 7000 cycles
====== Traffic class 0 ======

Total number of flits generated = 8502, changed lanes = 8132
Overall minimum packet latency = 7 (1 samples)
Overall average packet latency = 37.7217 (1 samples)
Overall maximum packet latency = 112 (1 samples)
Overall minimum network latency = 8 (1 samples)
Overall average network latency = 38.7217 (1 samples)
Overall maximum network latency = 113 (1 samples)
Overall minimum flit latency = 8 (1 samples)
Overall average flit latency = 38.8626 (1 samples)
Overall maximum flit latency = 113 (1 samples)
Overall minimum fragmentation = 0 (1 samples)
Overall average fragmentation = 0 (1 samples)
Overall maximum fragmentation = 0 (1 samples)
Overall minimum injected packet rate = 0.0836667 (1 samples)
Overall average injected packet rate = 0.0892292 (1 samples)
Overall maximum injected packet rate = 0.104 (1 samples)
Overall minimum accepted packet rate = 0.076 (1 samples)
Overall average accepted packet rate = 0.0895833 (1 samples)
Overall maximum accepted packet rate = 0.0993333 (1 samples)
Overall minimum injected flit rate = 0.0836667 (1 samples)
Overall average injected flit rate = 0.0892292 (1 samples)
Overall maximum injected flit rate = 0.104 (1 samples)
Overall minimum accepted flit rate = 0.076 (1 samples)
Overall average accepted flit rate = 0.0895833 (1 samples)
Overall maximum accepted flit rate = 0.0993333 (1 samples)
Overall average injected packet size = 1 (1 samples)
Overall average accepted packet size = 1 (1 samples)
Overall average hops = 3.50712 (1 samples)
Overall throughput of the network (flits/cycle) = 2.834
Overall throughput of the network (packets/cycle) = 2.834
Total run time 14.4233
