make: Nothing to be done for 'all'.
Master: Running timer....
Master: Running SRC....
BEGIN Configuration File: ./examples/bitrev
// Topology

topology = mesh;
k = 4;
n = 2;

// Routing
routing_function = dor;

// Flow control
num_vcs     = 4;
vc_buf_size = 4;
wait_for_tail_credit = 0;

// Router architecture
vc_allocator = islip;
sw_allocator = islip;
alloc_iters  = 1;

credit_delay   = 1;
routing_delay  = 1;
vc_alloc_delay = 1;
sw_alloc_delay = 1;

input_speedup     = 1;
output_speedup    = 1;
internal_speedup  = 1.0;

vc_busy_when_full = 0;

// Traffic
traffic = uniform;
packet_size = 1;

// Simulation
sim_type = throughput;

injection_rate = 0.07;

END Configuration File: ./examples/bitrev
===== Time: 1000 =====
Class 0:
Minimum packet latency = 7
Average packet latency = 36.8305
Maximum packet latency = 210
Minimum network latency = 8
Average network latency = 37.8305
Maximum network latency = 211
Slowest packet = 265
Minimum flit latency = 8
Average flit latency = 37.8305
Maximum flit latency = 211
Slowest flit = 265
Minimum fragmentation = 0
Average fragmentation = 0
Maximum fragmentation = 0
Minimum injected packet rate = 0.058 (at node 8)
Average injected packet rate = 0.068125
Maximum injected packet rate = 0.077 (at node 1)
Minimum accepted packet rate = 0.052 (at node 6)
Average accepted packet rate = 0.066
Maximum accepted packet rate = 0.077 (at node 15)
Minimum injected flit rate = 0.058 (at node 8)
Average injected flit rate = 0.068125
Maximum injected flit rate = 0.077 (at node 1)
Minimum accepted flit rate = 0.052 (at node 6)
Average accepted flit rate = 0.066
Maximum accepted flit rate = 0.077 (at node 15)
Total number of injected packets = 1090
Total number of injected flits = 1090
Average injected packet length = 1
Total number of accepted packets = 1056
Total number of accepted flits = 1056
Average accepted packet length = 1
Total in-flight flits = 34 (0 measured)
===== Time: 2000 =====
Class 0:
Minimum packet latency = 7
Average packet latency = 36.7219
Maximum packet latency = 210
Minimum network latency = 8
Average network latency = 37.7219
Maximum network latency = 211
Slowest packet = 265
Minimum flit latency = 8
Average flit latency = 37.7219
Maximum flit latency = 211
Slowest flit = 265
Minimum fragmentation = 0
Average fragmentation = 0
Maximum fragmentation = 0
Minimum injected packet rate = 0.0565 (at node 8)
Average injected packet rate = 0.0672187
Maximum injected packet rate = 0.075 (at node 4)
Minimum accepted packet rate = 0.057 (at node 14)
Average accepted packet rate = 0.0659688
Maximum accepted packet rate = 0.072 (at node 15)
Minimum injected flit rate = 0.0565 (at node 8)
Average injected flit rate = 0.0672187
Maximum injected flit rate = 0.075 (at node 4)
Minimum accepted flit rate = 0.057 (at node 14)
Average accepted flit rate = 0.0659688
Maximum accepted flit rate = 0.072 (at node 15)
Total number of injected packets = 2151
Total number of injected flits = 2151
Average injected packet length = 1
Total number of accepted packets = 2111
Total number of accepted flits = 2111
Average accepted packet length = 1
Total in-flight flits = 40 (0 measured)
===== Time: 3000 =====
Class 0:
Minimum packet latency = 7
Average packet latency = 36.1194
Maximum packet latency = 109
Minimum network latency = 8
Average network latency = 37.1194
Maximum network latency = 110
Slowest packet = 2555
Minimum flit latency = 8
Average flit latency = 37.1194
Maximum flit latency = 110
Slowest flit = 2555
Minimum fragmentation = 0
Average fragmentation = 0
Maximum fragmentation = 0
Minimum injected packet rate = 0.064 (at node 4)
Average injected packet rate = 0.0718125
Maximum injected packet rate = 0.081 (at node 6)
Minimum accepted packet rate = 0.054 (at node 2)
Average accepted packet rate = 0.0706875
Maximum accepted packet rate = 0.081 (at node 11)
Minimum injected flit rate = 0.064 (at node 4)
Average injected flit rate = 0.0718125
Maximum injected flit rate = 0.081 (at node 6)
Minimum accepted flit rate = 0.054 (at node 2)
Average accepted flit rate = 0.0706875
Maximum accepted flit rate = 0.081 (at node 11)
Total number of injected packets = 1149
Total number of injected flits = 1149
Average injected packet length = 1
Total number of accepted packets = 1131
Total number of accepted flits = 1131
Average accepted packet length = 1
Total in-flight flits = 58 (0 measured)
===== Time: 4000 =====
Class 0:
Minimum packet latency = 7
Average packet latency = 36.5249
Maximum packet latency = 110
Minimum network latency = 8
Average network latency = 37.5249
Maximum network latency = 111
Slowest packet = 3942
Minimum flit latency = 8
Average flit latency = 38.1279
Maximum flit latency = 111
Slowest flit = 3942
Minimum fragmentation = 0
Average fragmentation = 0
Maximum fragmentation = 0
Minimum injected packet rate = 0.051 (at node 0)
Average injected packet rate = 0.067875
Maximum injected packet rate = 0.083 (at node 15)
Minimum accepted packet rate = 0.049 (at node 4)
Average accepted packet rate = 0.068875
Maximum accepted packet rate = 0.094 (at node 8)
Minimum injected flit rate = 0.051 (at node 0)
Average injected flit rate = 0.067875
Maximum injected flit rate = 0.083 (at node 15)
Minimum accepted flit rate = 0.049 (at node 4)
Average accepted flit rate = 0.068875
Maximum accepted flit rate = 0.094 (at node 8)
Total number of injected packets = 1086
Total number of injected flits = 1086
Average injected packet length = 1
Total number of accepted packets = 1102
Total number of accepted flits = 1102
Average accepted packet length = 1
Total in-flight flits = 42 (42 measured)
===== Time: 5000 =====
Class 0:
Minimum packet latency = 7
Average packet latency = 36.8856
Maximum packet latency = 144
Minimum network latency = 8
Average network latency = 37.8856
Maximum network latency = 145
Slowest packet = 5126
Minimum flit latency = 8
Average flit latency = 38.1806
Maximum flit latency = 145
Slowest flit = 5126
Minimum fragmentation = 0
Average fragmentation = 0
Maximum fragmentation = 0
Minimum injected packet rate = 0.059 (at node 0)
Average injected packet rate = 0.0675625
Maximum injected packet rate = 0.0795 (at node 15)
Minimum accepted packet rate = 0.054 (at node 4)
Average accepted packet rate = 0.0681875
Maximum accepted packet rate = 0.0775 (at node 11)
Minimum injected flit rate = 0.059 (at node 0)
Average injected flit rate = 0.0675625
Maximum injected flit rate = 0.0795 (at node 15)
Minimum accepted flit rate = 0.054 (at node 4)
Average accepted flit rate = 0.0681875
Maximum accepted flit rate = 0.0775 (at node 11)
Total number of injected packets = 2162
Total number of injected flits = 2162
Average injected packet length = 1
Total number of accepted packets = 2182
Total number of accepted flits = 2182
Average accepted packet length = 1
Total in-flight flits = 38 (38 measured)
===== Time: 6000 =====
Class 0:
Minimum packet latency = 7
Average packet latency = 36.4528
Maximum packet latency = 206
Minimum network latency = 8
Average network latency = 37.4528
Maximum network latency = 207
Slowest packet = 5526
Minimum flit latency = 8
Average flit latency = 37.656
Maximum flit latency = 207
Slowest flit = 5526
Minimum fragmentation = 0
Average fragmentation = 0
Maximum fragmentation = 0
Minimum injected packet rate = 0.0623333 (at node 0)
Average injected packet rate = 0.0681875
Maximum injected packet rate = 0.08 (at node 15)
Minimum accepted packet rate = 0.057 (at node 4)
Average accepted packet rate = 0.0685625
Maximum accepted packet rate = 0.0763333 (at node 7)
Minimum injected flit rate = 0.0623333 (at node 0)
Average injected flit rate = 0.0681875
Maximum injected flit rate = 0.08 (at node 15)
Minimum accepted flit rate = 0.057 (at node 4)
Average accepted flit rate = 0.0685625
Maximum accepted flit rate = 0.0763333 (at node 7)
Total number of injected packets = 3273
Total number of injected flits = 3273
Average injected packet length = 1
Total number of accepted packets = 3291
Total number of accepted flits = 3291
Average accepted packet length = 1
Total in-flight flits = 40 (40 measured)
Draining remaining packets ...
Class 0:
Remaining flits: 6509 6528 6534 6535 6539 6542 6543 6544 6548 6550 [...] (27 flits)
Measured flits: 6509 6528 6534 6535 6539 6542 6543 6544 6548 6550 [...] (27 flits)
Class 0:
Remaining flits: 6539 6544 6550 6553 6554 6555 6558 6560 6561 6562 [...] (17 flits)
Measured flits: 6539 6544 6550 6553 6554 6555 6558 6560 6561 6562 [...] (17 flits)
Class 0:
Remaining flits: 6539 6550 6554 6558 6561 6562 6566 6568 6569 6571 (10 flits)
Measured flits: 6539 6550 6554 6558 6561 6562 6566 6568 6569 6571 (10 flits)
Class 0:
Remaining flits: 6539 6562 6566 6569 (4 flits)
Measured flits: 6539 6562 6566 6569 (4 flits)
Class 0:
Remaining flits: 6562 (1 flits)
Measured flits: 6562 (1 flits)
Class 0:
Remaining flits: 6562 (1 flits)
Measured flits: 6562 (1 flits)
Class 0:
Remaining flits: 6562 (1 flits)
Measured flits: 6562 (1 flits)
Class 0:
Remaining flits: 6562 (1 flits)
Measured flits: 6562 (1 flits)
Class 0:
Remaining flits: 6562 (1 flits)
Measured flits: 6562 (1 flits)
Class 0:
Remaining flits: 6562 (1 flits)
Measured flits: 6562 (1 flits)
Class 0:
Remaining flits: 6562 (1 flits)
Measured flits: 6562 (1 flits)
Class 0:
Remaining flits: 6562 (1 flits)
Measured flits: 6562 (1 flits)
Class 0:
Remaining flits: 6562 (1 flits)
Measured flits: 6562 (1 flits)
Class 0:
Remaining flits: 6562 (1 flits)
Measured flits: 6562 (1 flits)
Class 0:
Remaining flits: 6562 (1 flits)
Measured flits: 6562 (1 flits)
Class 0:
Remaining flits: 6562 (1 flits)
Measured flits: 6562 (1 flits)
Class 0:
Remaining flits: 6562 (1 flits)
Measured flits: 6562 (1 flits)
Class 0:
Remaining flits: 6562 (1 flits)
Measured flits: 6562 (1 flits)
Class 0:
Remaining flits: 6562 (1 flits)
Measured flits: 6562 (1 flits)
Class 0:
Remaining flits: 6562 (1 flits)
Measured flits: 6562 (1 flits)
Class 0:
Remaining flits: 6562 (1 flits)
Measured flits: 6562 (1 flits)
Class 0:
Remaining flits: 6562 (1 flits)
Measured flits: 6562 (1 flits)
Class 0:
Remaining flits: 6562 (1 flits)
Measured flits: 6562 (1 flits)
Class 0:
Remaining flits: 6562 (1 flits)
Measured flits: 6562 (1 flits)
Class 0:
Remaining flits: 6562 (1 flits)
Measured flits: 6562 (1 flits)
Class 0:
Remaining flits: 6562 (1 flits)
Measured flits: 6562 (1 flits)
Class 0:
Remaining flits: 6562 (1 flits)
Measured flits: 6562 (1 flits)
Class 0:
Remaining flits: 6562 (1 flits)
Measured flits: 6562 (1 flits)
Class 0:
Remaining flits: 6562 (1 flits)
Measured flits: 6562 (1 flits)
Class 0:
Remaining flits: 6562 (1 flits)
Measured flits: 6562 (1 flits)
Class 0:
Remaining flits: 6562 (1 flits)
Measured flits: 6562 (1 flits)
Class 0:
Remaining flits: 6562 (1 flits)
Measured flits: 6562 (1 flits)
Class 0:
Remaining flits: 6562 (1 flits)
Measured flits: 6562 (1 flits)
Class 0:
Remaining flits: 6562 (1 flits)
Measured flits: 6562 (1 flits)
Class 0:
Remaining flits: 6562 (1 flits)
Measured flits: 6562 (1 flits)
Class 0:
Remaining flits: 6562 (1 flits)
Measured flits: 6562 (1 flits)
Class 0:
Remaining flits: 6562 (1 flits)
Measured flits: 6562 (1 flits)
Class 0:
Remaining flits: 6562 (1 flits)
Measured flits: 6562 (1 flits)
Class 0:
Remaining flits: 6562 (1 flits)
Measured flits: 6562 (1 flits)
Class 0:
Remaining flits: 6562 (1 flits)
Measured flits: 6562 (1 flits)
Class 0:
Remaining flits: 6562 (1 flits)
Measured flits: 6562 (1 flits)
Class 0:
Remaining flits: 6562 (1 flits)
Measured flits: 6562 (1 flits)
Class 0:
Remaining flits: 6562 (1 flits)
Measured flits: 6562 (1 flits)
Class 0:
Remaining flits: 6562 (1 flits)
Measured flits: 6562 (1 flits)
Class 0:
Remaining flits: 6562 (1 flits)
Measured flits: 6562 (1 flits)
Class 0:
Remaining flits: 6562 (1 flits)
Measured flits: 6562 (1 flits)
Class 0:
Remaining flits: 6562 (1 flits)
Measured flits: 6562 (1 flits)
Class 0:
Remaining flits: 6562 (1 flits)
Measured flits: 6562 (1 flits)
Class 0:
Remaining flits: 6562 (1 flits)
Measured flits: 6562 (1 flits)
Class 0:
Remaining flits: 6562 (1 flits)
Measured flits: 6562 (1 flits)
Class 0:
Remaining flits: 6562 (1 flits)
Measured flits: 6562 (1 flits)
Class 0:
Remaining flits: 6562 (1 flits)
Measured flits: 6562 (1 flits)
Class 0:
Remaining flits: 6562 (1 flits)
Measured flits: 6562 (1 flits)
Class 0:
Remaining flits: 6562 (1 flits)
Measured flits: 6562 (1 flits)
Class 0:
Remaining flits: 6562 (1 flits)
Measured flits: 6562 (1 flits)
Class 0:
Remaining flits: 6562 (1 flits)
Measured flits: 6562 (1 flits)
Class 0:
Remaining flits: 6562 (1 flits)
Measured flits: 6562 (1 flits)
Class 0:
Remaining flits: 6562 (1 flits)
Measured flits: 6562 (1 flits)
Class 0:
Remaining flits: 6562 (1 flits)
Measured flits: 6562 (1 flits)
Class 0:
Remaining flits: 6562 (1 flits)
Measured flits: 6562 (1 flits)
Class 0:
Remaining flits: 6562 (1 flits)
Measured flits: 6562 (1 flits)
Class 0:
Remaining flits: 6562 (1 flits)
Measured flits: 6562 (1 flits)
Class 0:
Remaining flits: 6562 (1 flits)
Measured flits: 6562 (1 flits)
Class 0:
Remaining flits: 6562 (1 flits)
Measured flits: 6562 (1 flits)
Class 0:
Remaining flits: 6562 (1 flits)
Measured flits: 6562 (1 flits)
Class 0:
Remaining flits: 6562 (1 flits)
Measured flits: 6562 (1 flits)
Class 0:
Remaining flits: 6562 (1 flits)
Measured flits: 6562 (1 flits)
Class 0:
Remaining flits: 6562 (1 flits)
Measured flits: 6562 (1 flits)
Class 0:
Remaining flits: 6562 (1 flits)
Measured flits: 6562 (1 flits)
Class 0:
Remaining flits: 6562 (1 flits)
Measured flits: 6562 (1 flits)
Class 0:
Remaining flits: 6562 (1 flits)
Measured flits: 6562 (1 flits)
Class 0:
Remaining flits: 6562 (1 flits)
Measured flits: 6562 (1 flits)
Class 0:
Remaining flits: 6562 (1 flits)
Measured flits: 6562 (1 flits)
Class 0:
Remaining flits: 6562 (1 flits)
Measured flits: 6562 (1 flits)
Class 0:
Remaining flits: 6562 (1 flits)
Measured flits: 6562 (1 flits)
Class 0:
Remaining flits: 6562 (1 flits)
Measured flits: 6562 (1 flits)
Class 0:
Remaining flits: 6562 (1 flits)
Measured flits: 6562 (1 flits)
Class 0:
Remaining flits: 6562 (1 flits)
Measured flits: 6562 (1 flits)
Class 0:
Remaining flits: 6562 (1 flits)
Measured flits: 6562 (1 flits)
Class 0:
Remaining flits: 6562 (1 flits)
Measured flits: 6562 (1 flits)
Class 0:
Remaining flits: 6562 (1 flits)
Measured flits: 6562 (1 flits)
Class 0:
Remaining flits: 6562 (1 flits)
Measured flits: 6562 (1 flits)
Class 0:
Remaining flits: 6562 (1 flits)
Measured flits: 6562 (1 flits)
Class 0:
Remaining flits: 6562 (1 flits)
Measured flits: 6562 (1 flits)
Class 0:
Remaining flits: 6562 (1 flits)
Measured flits: 6562 (1 flits)
Class 0:
Remaining flits: 6562 (1 flits)
Measured flits: 6562 (1 flits)
Class 0:
Remaining flits: 6562 (1 flits)
Measured flits: 6562 (1 flits)
Class 0:
Remaining flits: 6562 (1 flits)
Measured flits: 6562 (1 flits)
Class 0:
Remaining flits: 6562 (1 flits)
Measured flits: 6562 (1 flits)
Class 0:
Remaining flits: 6562 (1 flits)
Measured flits: 6562 (1 flits)
Class 0:
Remaining flits: 6562 (1 flits)
Measured flits: 6562 (1 flits)
Class 0:
Remaining flits: 6562 (1 flits)
Measured flits: 6562 (1 flits)
Class 0:
Remaining flits: 6562 (1 flits)
Measured flits: 6562 (1 flits)
Class 0:
Remaining flits: 6562 (1 flits)
Measured flits: 6562 (1 flits)
Class 0:
Remaining flits: 6562 (1 flits)
Measured flits: 6562 (1 flits)
Class 0:
Remaining flits: 6562 (1 flits)
Measured flits: 6562 (1 flits)
Class 0:
Remaining flits: 6562 (1 flits)
Measured flits: 6562 (1 flits)
Class 0:
Remaining flits: 6562 (1 flits)
Measured flits: 6562 (1 flits)
Class 0:
Remaining flits: 6562 (1 flits)
Measured flits: 6562 (1 flits)
Class 0:
Remaining flits: 6562 (1 flits)
Measured flits: 6562 (1 flits)
Class 0:
Remaining flits: 6562 (1 flits)
Measured flits: 6562 (1 flits)
Time taken is 7000 cycles
====== Traffic class 0 ======

Total number of flits generated = 6573, changed lanes = 6253
Overall minimum packet latency = 7 (1 samples)
Overall average packet latency = 36.5174 (1 samples)
Overall maximum packet latency = 206 (1 samples)
Overall minimum network latency = 8 (1 samples)
Overall average network latency = 37.5174 (1 samples)
Overall maximum network latency = 207 (1 samples)
Overall minimum flit latency = 8 (1 samples)
Overall average flit latency = 37.7171 (1 samples)
Overall maximum flit latency = 207 (1 samples)
Overall minimum fragmentation = 0 (1 samples)
Overall average fragmentation = 0 (1 samples)
Overall maximum fragmentation = 0 (1 samples)
Overall minimum injected packet rate = 0.0623333 (1 samples)
Overall average injected packet rate = 0.0681875 (1 samples)
Overall maximum injected packet rate = 0.08 (1 samples)
Overall minimum accepted packet rate = 0.057 (1 samples)
Overall average accepted packet rate = 0.0685625 (1 samples)
Overall maximum accepted packet rate = 0.0763333 (1 samples)
Overall minimum injected flit rate = 0.0623333 (1 samples)
Overall average injected flit rate = 0.0681875 (1 samples)
Overall maximum injected flit rate = 0.08 (1 samples)
Overall minimum accepted flit rate = 0.057 (1 samples)
Overall average accepted flit rate = 0.0685625 (1 samples)
Overall maximum accepted flit rate = 0.0763333 (1 samples)
Overall average injected packet size = 1 (1 samples)
Overall average accepted packet size = 1 (1 samples)
Overall average hops = 3.48289 (1 samples)
Overall throughput of the network (flits/cycle) = 2.19067
Overall throughput of the network (packets/cycle) = 2.19067
Total run time 7.30676
