make: Nothing to be done for 'all'.
Master: Running timer....
Master: Running SRC....
BEGIN Configuration File: ./examples/bitrev
// Topology

topology = mesh;
k = 4;
n = 2;

// Routing
routing_function = dor;

// Flow control
num_vcs     = 4;
vc_buf_size = 4;
wait_for_tail_credit = 0;

// Router architecture
vc_allocator = islip;
sw_allocator = islip;
alloc_iters  = 1;

credit_delay   = 1;
routing_delay  = 1;
vc_alloc_delay = 1;
sw_alloc_delay = 1;

input_speedup     = 1;
output_speedup    = 1;
internal_speedup  = 1.0;

vc_busy_when_full = 0;

// Traffic
traffic = uniform;
packet_size = 1;

// Simulation
sim_type = throughput;

injection_rate = 0.33;

END Configuration File: ./examples/bitrev
===== Time: 1000 =====
Class 0:
Minimum packet latency = 7
Average packet latency = 250.308
Maximum packet latency = 637
Minimum network latency = 8
Average network latency = 154.266
Maximum network latency = 601
Slowest packet = 1013
Minimum flit latency = 8
Average flit latency = 154.266
Maximum flit latency = 601
Slowest flit = 1531
Minimum fragmentation = 0
Average fragmentation = 0
Maximum fragmentation = 0
Minimum injected packet rate = 0.166 (at node 14)
Average injected packet rate = 0.195813
Maximum injected packet rate = 0.226 (at node 4)
Minimum accepted packet rate = 0.139 (at node 14)
Average accepted packet rate = 0.162562
Maximum accepted packet rate = 0.182 (at node 1)
Minimum injected flit rate = 0.166 (at node 14)
Average injected flit rate = 0.195813
Maximum injected flit rate = 0.226 (at node 4)
Minimum accepted flit rate = 0.139 (at node 14)
Average accepted flit rate = 0.162562
Maximum accepted flit rate = 0.182 (at node 1)
Total number of injected packets = 3133
Total number of injected flits = 3133
Average injected packet length = 1
Total number of accepted packets = 2601
Total number of accepted flits = 2601
Average accepted packet length = 1
Total in-flight flits = 545 (0 measured)
===== Time: 2000 =====
Class 0:
Minimum packet latency = 7
Average packet latency = 496.241
Maximum packet latency = 1217
Minimum network latency = 8
Average network latency = 179.845
Maximum network latency = 618
Slowest packet = 1013
Minimum flit latency = 8
Average flit latency = 179.845
Maximum flit latency = 618
Slowest flit = 2755
Minimum fragmentation = 0
Average fragmentation = 0
Maximum fragmentation = 0
Minimum injected packet rate = 0.164 (at node 14)
Average injected packet rate = 0.177187
Maximum injected packet rate = 0.2 (at node 0)
Minimum accepted packet rate = 0.1495 (at node 14)
Average accepted packet rate = 0.1615
Maximum accepted packet rate = 0.172 (at node 1)
Minimum injected flit rate = 0.164 (at node 14)
Average injected flit rate = 0.177187
Maximum injected flit rate = 0.2 (at node 0)
Minimum accepted flit rate = 0.1495 (at node 14)
Average accepted flit rate = 0.1615
Maximum accepted flit rate = 0.172 (at node 1)
Total number of injected packets = 5670
Total number of injected flits = 5670
Average injected packet length = 1
Total number of accepted packets = 5168
Total number of accepted flits = 5168
Average accepted packet length = 1
Total in-flight flits = 515 (0 measured)
===== Time: 3000 =====
Class 0:
Minimum packet latency = 775
Average packet latency = 1256.43
Maximum packet latency = 1719
Minimum network latency = 46
Average network latency = 204.108
Maximum network latency = 760
Slowest packet = 5087
Minimum flit latency = 46
Average flit latency = 204.108
Maximum flit latency = 760
Slowest flit = 4519
Minimum fragmentation = 0
Average fragmentation = 0
Maximum fragmentation = 0
Minimum injected packet rate = 0.123 (at node 2)
Average injected packet rate = 0.163312
Maximum injected packet rate = 0.208 (at node 7)
Minimum accepted packet rate = 0.134 (at node 4)
Average accepted packet rate = 0.161188
Maximum accepted packet rate = 0.18 (at node 0)
Minimum injected flit rate = 0.123 (at node 2)
Average injected flit rate = 0.163312
Maximum injected flit rate = 0.208 (at node 7)
Minimum accepted flit rate = 0.134 (at node 4)
Average accepted flit rate = 0.161188
Maximum accepted flit rate = 0.18 (at node 0)
Total number of injected packets = 2613
Total number of injected flits = 2613
Average injected packet length = 1
Total number of accepted packets = 2579
Total number of accepted flits = 2579
Average accepted packet length = 1
Total in-flight flits = 547 (0 measured)
===== Time: 4000 =====
Class 0:
Minimum packet latency = 1241
Average packet latency = 1796.37
Maximum packet latency = 2443
Minimum network latency = 43
Average network latency = 190.297
Maximum network latency = 709
Slowest packet = 8315
Minimum flit latency = 43
Average flit latency = 206.304
Maximum flit latency = 808
Slowest flit = 7614
Minimum fragmentation = 0
Average fragmentation = 0
Maximum fragmentation = 0
Minimum injected packet rate = 0.123 (at node 2)
Average injected packet rate = 0.159938
Maximum injected packet rate = 0.195 (at node 0)
Minimum accepted packet rate = 0.135 (at node 4)
Average accepted packet rate = 0.160312
Maximum accepted packet rate = 0.191 (at node 7)
Minimum injected flit rate = 0.123 (at node 2)
Average injected flit rate = 0.159938
Maximum injected flit rate = 0.195 (at node 0)
Minimum accepted flit rate = 0.135 (at node 4)
Average accepted flit rate = 0.160312
Maximum accepted flit rate = 0.191 (at node 7)
Total number of injected packets = 2559
Total number of injected flits = 2559
Average injected packet length = 1
Total number of accepted packets = 2565
Total number of accepted flits = 2565
Average accepted packet length = 1
Total in-flight flits = 544 (544 measured)
===== Time: 5000 =====
Class 0:
Minimum packet latency = 1241
Average packet latency = 2049.9
Maximum packet latency = 3099
Minimum network latency = 43
Average network latency = 192.993
Maximum network latency = 837
Slowest packet = 8315
Minimum flit latency = 43
Average flit latency = 200.636
Maximum flit latency = 837
Slowest flit = 9456
Minimum fragmentation = 0
Average fragmentation = 0
Maximum fragmentation = 0
Minimum injected packet rate = 0.113 (at node 2)
Average injected packet rate = 0.160219
Maximum injected packet rate = 0.194 (at node 0)
Minimum accepted packet rate = 0.1445 (at node 4)
Average accepted packet rate = 0.161844
Maximum accepted packet rate = 0.1845 (at node 7)
Minimum injected flit rate = 0.113 (at node 2)
Average injected flit rate = 0.160219
Maximum injected flit rate = 0.194 (at node 0)
Minimum accepted flit rate = 0.1445 (at node 4)
Average accepted flit rate = 0.161844
Maximum accepted flit rate = 0.1845 (at node 7)
Total number of injected packets = 5127
Total number of injected flits = 5127
Average injected packet length = 1
Total number of accepted packets = 5179
Total number of accepted flits = 5179
Average accepted packet length = 1
Total in-flight flits = 496 (496 measured)
===== Time: 6000 =====
Class 0:
Minimum packet latency = 1241
Average packet latency = 2296.4
Maximum packet latency = 3763
Minimum network latency = 43
Average network latency = 194.642
Maximum network latency = 837
Slowest packet = 8315
Minimum flit latency = 43
Average flit latency = 199.67
Maximum flit latency = 837
Slowest flit = 9456
Minimum fragmentation = 0
Average fragmentation = 0
Maximum fragmentation = 0
Minimum injected packet rate = 0.11 (at node 2)
Average injected packet rate = 0.1595
Maximum injected packet rate = 0.198 (at node 0)
Minimum accepted packet rate = 0.145 (at node 4)
Average accepted packet rate = 0.160292
Maximum accepted packet rate = 0.175333 (at node 11)
Minimum injected flit rate = 0.11 (at node 2)
Average injected flit rate = 0.1595
Maximum injected flit rate = 0.198 (at node 0)
Minimum accepted flit rate = 0.145 (at node 4)
Average accepted flit rate = 0.160292
Maximum accepted flit rate = 0.175333 (at node 11)
Total number of injected packets = 7656
Total number of injected flits = 7656
Average injected packet length = 1
Total number of accepted packets = 7694
Total number of accepted flits = 7694
Average accepted packet length = 1
Total in-flight flits = 510 (510 measured)
Draining remaining packets ...
Class 0:
Remaining flits: 13724 14021 14042 14049 14179 14210 14280 14305 14346 14369 [...] (491 flits)
Measured flits: 13724 14021 14042 14049 14179 14210 14280 14305 14346 14369 [...] (491 flits)
Class 0:
Remaining flits: 13724 14021 14042 14049 14210 14280 14305 14346 14369 14397 [...] (470 flits)
Measured flits: 13724 14021 14042 14049 14210 14280 14305 14346 14369 14397 [...] (470 flits)
Class 0:
Remaining flits: 13724 14021 14042 14049 14210 14280 14305 14346 14369 14397 [...] (437 flits)
Measured flits: 13724 14021 14042 14049 14210 14280 14305 14346 14369 14397 [...] (437 flits)
Class 0:
Remaining flits: 14021 14042 14049 14210 14280 14305 14346 14369 14397 14424 [...] (417 flits)
Measured flits: 14021 14042 14049 14210 14280 14305 14346 14369 14397 14424 [...] (417 flits)
Class 0:
Remaining flits: 14021 14042 14049 14210 14280 14305 14346 14369 14397 14424 [...] (393 flits)
Measured flits: 14021 14042 14049 14210 14280 14305 14346 14369 14397 14424 [...] (393 flits)
Class 0:
Remaining flits: 14021 14042 14049 14210 14280 14305 14346 14369 14424 14667 [...] (366 flits)
Measured flits: 14021 14042 14049 14210 14280 14305 14346 14369 14424 14667 [...] (366 flits)
Class 0:
Remaining flits: 14021 14042 14049 14210 14280 14305 14346 14369 14424 14667 [...] (339 flits)
Measured flits: 14021 14042 14049 14210 14280 14305 14346 14369 14424 14667 [...] (339 flits)
Class 0:
Remaining flits: 14021 14042 14049 14210 14280 14305 14346 14369 14424 14667 [...] (325 flits)
Measured flits: 14021 14042 14049 14210 14280 14305 14346 14369 14424 14667 [...] (325 flits)
Class 0:
Remaining flits: 14049 14210 14280 14305 14346 14369 14424 14667 14704 14837 [...] (297 flits)
Measured flits: 14049 14210 14280 14305 14346 14369 14424 14667 14704 14837 [...] (297 flits)
Class 0:
Remaining flits: 14049 14210 14280 14305 14346 14369 14424 14667 14704 14837 [...] (272 flits)
Measured flits: 14049 14210 14280 14305 14346 14369 14424 14667 14704 14837 [...] (272 flits)
Class 0:
Remaining flits: 14049 14280 14305 14346 14369 14424 14667 14704 14837 14915 [...] (250 flits)
Measured flits: 14049 14280 14305 14346 14369 14424 14667 14704 14837 14915 [...] (250 flits)
Class 0:
Remaining flits: 14049 14280 14305 14346 14369 14424 14667 14704 14837 14915 [...] (224 flits)
Measured flits: 14049 14280 14305 14346 14369 14424 14667 14704 14837 14915 [...] (224 flits)
Class 0:
Remaining flits: 14049 14280 14305 14346 14369 14424 14667 14704 14837 14915 [...] (206 flits)
Measured flits: 14049 14280 14305 14346 14369 14424 14667 14704 14837 14915 [...] (206 flits)
Class 0:
Remaining flits: 14049 14280 14305 14346 14369 14424 14667 14837 14942 14943 [...] (185 flits)
Measured flits: 14049 14280 14305 14346 14369 14424 14667 14837 14942 14943 [...] (185 flits)
Class 0:
Remaining flits: 14049 14280 14305 14346 14424 14667 14837 14942 14943 14966 [...] (165 flits)
Measured flits: 14049 14280 14305 14346 14424 14667 14837 14942 14943 14966 [...] (165 flits)
Class 0:
Remaining flits: 14049 14280 14305 14346 14424 14667 14837 14942 14943 14966 [...] (150 flits)
Measured flits: 14049 14280 14305 14346 14424 14667 14837 14942 14943 14966 [...] (150 flits)
Class 0:
Remaining flits: 14049 14280 14305 14346 14424 14667 14837 14942 14943 14966 [...] (140 flits)
Measured flits: 14049 14280 14305 14346 14424 14667 14837 14942 14943 14966 [...] (140 flits)
Class 0:
Remaining flits: 14280 14305 14346 14424 14667 14837 14942 14943 14966 14975 [...] (123 flits)
Measured flits: 14280 14305 14346 14424 14667 14837 14942 14943 14966 14975 [...] (123 flits)
Class 0:
Remaining flits: 14280 14305 14346 14424 14667 14837 14943 14966 14975 14976 [...] (106 flits)
Measured flits: 14280 14305 14346 14424 14667 14837 14943 14966 14975 14976 [...] (106 flits)
Class 0:
Remaining flits: 14280 14305 14424 14667 14837 14943 14966 14975 14976 14982 [...] (102 flits)
Measured flits: 14280 14305 14424 14667 14837 14943 14966 14975 14976 14982 [...] (102 flits)
Class 0:
Remaining flits: 14280 14305 14424 14667 14837 14943 14966 14975 14976 14982 [...] (93 flits)
Measured flits: 14280 14305 14424 14667 14837 14943 14966 14975 14976 14982 [...] (93 flits)
Class 0:
Remaining flits: 14280 14667 14943 14966 14975 14976 14982 15031 15034 15045 [...] (78 flits)
Measured flits: 14280 14667 14943 14966 14975 14976 14982 15031 15034 15045 [...] (78 flits)
Class 0:
Remaining flits: 14280 14667 14943 14966 14975 14976 14982 15031 15054 15060 [...] (71 flits)
Measured flits: 14280 14667 14943 14966 14975 14976 14982 15031 15054 15060 [...] (71 flits)
Class 0:
Remaining flits: 14280 14667 14943 14966 14976 14982 15031 15054 15060 15171 [...] (66 flits)
Measured flits: 14280 14667 14943 14966 14976 14982 15031 15054 15060 15171 [...] (66 flits)
Class 0:
Remaining flits: 14280 14667 14943 14966 14976 14982 15031 15054 15171 15332 [...] (57 flits)
Measured flits: 14280 14667 14943 14966 14976 14982 15031 15054 15171 15332 [...] (57 flits)
Class 0:
Remaining flits: 14280 14667 14943 14976 14982 15054 15171 15332 15503 15509 [...] (51 flits)
Measured flits: 14280 14667 14943 14976 14982 15054 15171 15332 15503 15509 [...] (51 flits)
Class 0:
Remaining flits: 14280 14667 14943 14976 14982 15054 15171 15332 15509 15514 [...] (43 flits)
Measured flits: 14280 14667 14943 14976 14982 15054 15171 15332 15509 15514 [...] (43 flits)
Class 0:
Remaining flits: 14280 14667 14943 14976 14982 15054 15171 15332 15514 15563 [...] (39 flits)
Measured flits: 14280 14667 14943 14976 14982 15054 15171 15332 15514 15563 [...] (39 flits)
Class 0:
Remaining flits: 14280 14667 14943 14976 14982 15054 15171 15332 15514 15563 [...] (32 flits)
Measured flits: 14280 14667 14943 14976 14982 15054 15171 15332 15514 15563 [...] (32 flits)
Class 0:
Remaining flits: 14943 14976 14982 15171 15332 15563 15578 15593 15621 15679 [...] (27 flits)
Measured flits: 14943 14976 14982 15171 15332 15563 15578 15593 15621 15679 [...] (27 flits)
Class 0:
Remaining flits: 14943 14976 14982 15171 15332 15563 15578 15593 15679 15687 [...] (24 flits)
Measured flits: 14943 14976 14982 15171 15332 15563 15578 15593 15679 15687 [...] (24 flits)
Class 0:
Remaining flits: 14943 14982 15171 15332 15563 15578 15593 15679 15687 15729 [...] (21 flits)
Measured flits: 14943 14982 15171 15332 15563 15578 15593 15679 15687 15729 [...] (21 flits)
Class 0:
Remaining flits: 15171 15563 15578 15593 15679 15687 15729 15787 15806 15814 [...] (18 flits)
Measured flits: 15171 15563 15578 15593 15679 15687 15729 15787 15806 15814 [...] (18 flits)
Class 0:
Remaining flits: 15171 15563 15578 15593 15679 15687 15729 15787 15806 15814 [...] (18 flits)
Measured flits: 15171 15563 15578 15593 15679 15687 15729 15787 15806 15814 [...] (18 flits)
Class 0:
Remaining flits: 15171 15563 15578 15679 15687 15787 15806 15814 15831 15886 [...] (16 flits)
Measured flits: 15171 15563 15578 15679 15687 15787 15806 15814 15831 15886 [...] (16 flits)
Class 0:
Remaining flits: 15563 15578 15679 15687 15787 15806 15814 15831 15886 15905 [...] (15 flits)
Measured flits: 15563 15578 15679 15687 15787 15806 15814 15831 15886 15905 [...] (15 flits)
Class 0:
Remaining flits: 15563 15578 15679 15687 15787 15814 15831 15886 15905 15937 [...] (14 flits)
Measured flits: 15563 15578 15679 15687 15787 15814 15831 15886 15905 15937 [...] (14 flits)
Class 0:
Remaining flits: 15563 15679 15687 15787 15886 15905 15937 15939 15945 15946 [...] (11 flits)
Measured flits: 15563 15679 15687 15787 15886 15905 15937 15939 15945 15946 [...] (11 flits)
Class 0:
Remaining flits: 15679 15886 15905 15937 15939 15945 15946 15947 (8 flits)
Measured flits: 15679 15886 15905 15937 15939 15945 15946 15947 (8 flits)
Class 0:
Remaining flits: 15679 15886 15905 15937 15939 15945 15946 15947 (8 flits)
Measured flits: 15679 15886 15905 15937 15939 15945 15946 15947 (8 flits)
Class 0:
Remaining flits: 15886 15937 15939 15945 15946 15947 (6 flits)
Measured flits: 15886 15937 15939 15945 15946 15947 (6 flits)
Class 0:
Remaining flits: 15886 15937 15939 15945 15946 15947 (6 flits)
Measured flits: 15886 15937 15939 15945 15946 15947 (6 flits)
Class 0:
Remaining flits: 15886 15937 15939 15945 15946 15947 (6 flits)
Measured flits: 15886 15937 15939 15945 15946 15947 (6 flits)
Class 0:
Remaining flits: 15886 15937 15939 15945 15946 15947 (6 flits)
Measured flits: 15886 15937 15939 15945 15946 15947 (6 flits)
Class 0:
Remaining flits: 15886 15937 15939 15945 15946 15947 (6 flits)
Measured flits: 15886 15937 15939 15945 15946 15947 (6 flits)
Class 0:
Remaining flits: 15886 15937 15939 15945 15946 15947 (6 flits)
Measured flits: 15886 15937 15939 15945 15946 15947 (6 flits)
Class 0:
Remaining flits: 15886 15937 15939 15945 15946 15947 (6 flits)
Measured flits: 15886 15937 15939 15945 15946 15947 (6 flits)
Class 0:
Remaining flits: 15886 15937 15939 15945 15946 15947 (6 flits)
Measured flits: 15886 15937 15939 15945 15946 15947 (6 flits)
Class 0:
Remaining flits: 15886 15937 15939 15945 15946 15947 (6 flits)
Measured flits: 15886 15937 15939 15945 15946 15947 (6 flits)
Class 0:
Remaining flits: 15886 15937 15939 15945 15946 15947 (6 flits)
Measured flits: 15886 15937 15939 15945 15946 15947 (6 flits)
Class 0:
Remaining flits: 15886 15937 15939 15945 15946 15947 (6 flits)
Measured flits: 15886 15937 15939 15945 15946 15947 (6 flits)
Class 0:
Remaining flits: 15886 15937 15939 15945 15946 15947 (6 flits)
Measured flits: 15886 15937 15939 15945 15946 15947 (6 flits)
Class 0:
Remaining flits: 15886 15937 15939 15945 15946 15947 (6 flits)
Measured flits: 15886 15937 15939 15945 15946 15947 (6 flits)
Class 0:
Remaining flits: 15886 15937 15939 15945 15946 15947 (6 flits)
Measured flits: 15886 15937 15939 15945 15946 15947 (6 flits)
Class 0:
Remaining flits: 15886 15937 15939 15945 15946 15947 (6 flits)
Measured flits: 15886 15937 15939 15945 15946 15947 (6 flits)
Class 0:
Remaining flits: 15886 15937 15939 15945 15946 15947 (6 flits)
Measured flits: 15886 15937 15939 15945 15946 15947 (6 flits)
Class 0:
Remaining flits: 15886 15937 15939 15945 15946 15947 (6 flits)
Measured flits: 15886 15937 15939 15945 15946 15947 (6 flits)
Class 0:
Remaining flits: 15886 15937 15939 15945 15946 15947 (6 flits)
Measured flits: 15886 15937 15939 15945 15946 15947 (6 flits)
Class 0:
Remaining flits: 15886 15937 15939 15945 15946 15947 (6 flits)
Measured flits: 15886 15937 15939 15945 15946 15947 (6 flits)
Class 0:
Remaining flits: 15886 15937 15939 15945 15946 15947 (6 flits)
Measured flits: 15886 15937 15939 15945 15946 15947 (6 flits)
Class 0:
Remaining flits: 15886 15937 15939 15945 15946 15947 (6 flits)
Measured flits: 15886 15937 15939 15945 15946 15947 (6 flits)
Class 0:
Remaining flits: 15886 15937 15939 15945 15946 15947 (6 flits)
Measured flits: 15886 15937 15939 15945 15946 15947 (6 flits)
Class 0:
Remaining flits: 15886 15937 15939 15945 15946 15947 (6 flits)
Measured flits: 15886 15937 15939 15945 15946 15947 (6 flits)
Class 0:
Remaining flits: 15886 15937 15939 15945 15946 15947 (6 flits)
Measured flits: 15886 15937 15939 15945 15946 15947 (6 flits)
Class 0:
Remaining flits: 15886 15937 15939 15945 15946 15947 (6 flits)
Measured flits: 15886 15937 15939 15945 15946 15947 (6 flits)
Class 0:
Remaining flits: 15886 15937 15939 15945 15946 15947 (6 flits)
Measured flits: 15886 15937 15939 15945 15946 15947 (6 flits)
Class 0:
Remaining flits: 15886 15937 15939 15945 15946 15947 (6 flits)
Measured flits: 15886 15937 15939 15945 15946 15947 (6 flits)
Class 0:
Remaining flits: 15886 15937 15939 15945 15946 15947 (6 flits)
Measured flits: 15886 15937 15939 15945 15946 15947 (6 flits)
Class 0:
Remaining flits: 15886 15937 15939 15945 15946 15947 (6 flits)
Measured flits: 15886 15937 15939 15945 15946 15947 (6 flits)
Class 0:
Remaining flits: 15886 15937 15939 15945 15946 15947 (6 flits)
Measured flits: 15886 15937 15939 15945 15946 15947 (6 flits)
Class 0:
Remaining flits: 15886 15937 15939 15945 15946 15947 (6 flits)
Measured flits: 15886 15937 15939 15945 15946 15947 (6 flits)
Class 0:
Remaining flits: 15886 15937 15939 15945 15946 15947 (6 flits)
Measured flits: 15886 15937 15939 15945 15946 15947 (6 flits)
Class 0:
Remaining flits: 15886 15937 15939 15945 15946 15947 (6 flits)
Measured flits: 15886 15937 15939 15945 15946 15947 (6 flits)
Class 0:
Remaining flits: 15886 15937 15939 15945 15946 15947 (6 flits)
Measured flits: 15886 15937 15939 15945 15946 15947 (6 flits)
Class 0:
Remaining flits: 15886 15937 15939 15945 15946 15947 (6 flits)
Measured flits: 15886 15937 15939 15945 15946 15947 (6 flits)
Class 0:
Remaining flits: 15886 15937 15939 15945 15946 15947 (6 flits)
Measured flits: 15886 15937 15939 15945 15946 15947 (6 flits)
Class 0:
Remaining flits: 15886 15937 15939 15945 15946 15947 (6 flits)
Measured flits: 15886 15937 15939 15945 15946 15947 (6 flits)
Class 0:
Remaining flits: 15886 15937 15939 15945 15946 15947 (6 flits)
Measured flits: 15886 15937 15939 15945 15946 15947 (6 flits)
Class 0:
Remaining flits: 15886 15937 15939 15945 15946 15947 (6 flits)
Measured flits: 15886 15937 15939 15945 15946 15947 (6 flits)
Class 0:
Remaining flits: 15886 15937 15939 15945 15946 15947 (6 flits)
Measured flits: 15886 15937 15939 15945 15946 15947 (6 flits)
Class 0:
Remaining flits: 15886 15937 15939 15945 15946 15947 (6 flits)
Measured flits: 15886 15937 15939 15945 15946 15947 (6 flits)
Class 0:
Remaining flits: 15886 15937 15939 15945 15946 15947 (6 flits)
Measured flits: 15886 15937 15939 15945 15946 15947 (6 flits)
Class 0:
Remaining flits: 15886 15937 15939 15945 15946 15947 (6 flits)
Measured flits: 15886 15937 15939 15945 15946 15947 (6 flits)
Class 0:
Remaining flits: 15886 15937 15939 15945 15946 15947 (6 flits)
Measured flits: 15886 15937 15939 15945 15946 15947 (6 flits)
Class 0:
Remaining flits: 15886 15937 15939 15945 15946 15947 (6 flits)
Measured flits: 15886 15937 15939 15945 15946 15947 (6 flits)
Class 0:
Remaining flits: 15886 15937 15939 15945 15946 15947 (6 flits)
Measured flits: 15886 15937 15939 15945 15946 15947 (6 flits)
Class 0:
Remaining flits: 15886 15937 15939 15945 15946 15947 (6 flits)
Measured flits: 15886 15937 15939 15945 15946 15947 (6 flits)
Class 0:
Remaining flits: 15886 15937 15939 15945 15946 15947 (6 flits)
Measured flits: 15886 15937 15939 15945 15946 15947 (6 flits)
Class 0:
Remaining flits: 15886 15937 15939 15945 15946 15947 (6 flits)
Measured flits: 15886 15937 15939 15945 15946 15947 (6 flits)
Class 0:
Remaining flits: 15886 15937 15939 15945 15946 15947 (6 flits)
Measured flits: 15886 15937 15939 15945 15946 15947 (6 flits)
Class 0:
Remaining flits: 15886 15937 15939 15945 15946 15947 (6 flits)
Measured flits: 15886 15937 15939 15945 15946 15947 (6 flits)
Class 0:
Remaining flits: 15886 15937 15939 15945 15946 15947 (6 flits)
Measured flits: 15886 15937 15939 15945 15946 15947 (6 flits)
Class 0:
Remaining flits: 15886 15937 15939 15945 15946 15947 (6 flits)
Measured flits: 15886 15937 15939 15945 15946 15947 (6 flits)
Class 0:
Remaining flits: 15886 15937 15939 15945 15946 15947 (6 flits)
Measured flits: 15886 15937 15939 15945 15946 15947 (6 flits)
Class 0:
Remaining flits: 15886 15937 15939 15945 15946 15947 (6 flits)
Measured flits: 15886 15937 15939 15945 15946 15947 (6 flits)
Class 0:
Remaining flits: 15886 15937 15939 15945 15946 15947 (6 flits)
Measured flits: 15886 15937 15939 15945 15946 15947 (6 flits)
Class 0:
Remaining flits: 15886 15937 15939 15945 15946 15947 (6 flits)
Measured flits: 15886 15937 15939 15945 15946 15947 (6 flits)
Class 0:
Remaining flits: 15886 15937 15939 15945 15946 15947 (6 flits)
Measured flits: 15886 15937 15939 15945 15946 15947 (6 flits)
Class 0:
Remaining flits: 15886 15937 15939 15945 15946 15947 (6 flits)
Measured flits: 15886 15937 15939 15945 15946 15947 (6 flits)
Class 0:
Remaining flits: 15886 15937 15939 15945 15946 15947 (6 flits)
Measured flits: 15886 15937 15939 15945 15946 15947 (6 flits)
Class 0:
Remaining flits: 15886 15937 15939 15945 15946 15947 (6 flits)
Measured flits: 15886 15937 15939 15945 15946 15947 (6 flits)
Time taken is 7000 cycles
====== Traffic class 0 ======

Total number of flits generated = 15951, changed lanes = 15707
Overall minimum packet latency = 1241 (1 samples)
Overall average packet latency = 2352.16 (1 samples)
Overall maximum packet latency = 4093 (1 samples)
Overall minimum network latency = 43 (1 samples)
Overall average network latency = 199.03 (1 samples)
Overall maximum network latency = 977 (1 samples)
Overall minimum flit latency = 43 (1 samples)
Overall average flit latency = 203.456 (1 samples)
Overall maximum flit latency = 977 (1 samples)
Overall minimum fragmentation = 0 (1 samples)
Overall average fragmentation = 0 (1 samples)
Overall maximum fragmentation = 0 (1 samples)
Overall minimum injected packet rate = 0.11 (1 samples)
Overall average injected packet rate = 0.1595 (1 samples)
Overall maximum injected packet rate = 0.198 (1 samples)
Overall minimum accepted packet rate = 0.145 (1 samples)
Overall average accepted packet rate = 0.160292 (1 samples)
Overall maximum accepted packet rate = 0.175333 (1 samples)
Overall minimum injected flit rate = 0.11 (1 samples)
Overall average injected flit rate = 0.1595 (1 samples)
Overall maximum injected flit rate = 0.198 (1 samples)
Overall minimum accepted flit rate = 0.145 (1 samples)
Overall average accepted flit rate = 0.160292 (1 samples)
Overall maximum accepted flit rate = 0.175333 (1 samples)
Overall average injected packet size = 1 (1 samples)
Overall average accepted packet size = 1 (1 samples)
Overall average hops = 3.5215 (1 samples)
Overall throughput of the network (flits/cycle) = 5.315
Overall throughput of the network (packets/cycle) = 5.315
Total run time 7529.48
