make: Nothing to be done for 'all'.
Master: Running timer....
Master: Running SRC....
BEGIN Configuration File: ./examples/bitrev
// Topology

topology = mesh;
k = 4;
n = 2;

// Routing
routing_function = dor;

// Flow control
num_vcs     = 4;
vc_buf_size = 4;
wait_for_tail_credit = 0;

// Router architecture
vc_allocator = islip;
sw_allocator = islip;
alloc_iters  = 1;

credit_delay   = 1;
routing_delay  = 1;
vc_alloc_delay = 1;
sw_alloc_delay = 1;

input_speedup     = 1;
output_speedup    = 1;
internal_speedup  = 1.0;

vc_busy_when_full = 0;

// Traffic
traffic = uniform;
packet_size = 1;

// Simulation
sim_type = throughput;

injection_rate = 0.27;

END Configuration File: ./examples/bitrev
===== Time: 1000 =====
Class 0:
Minimum packet latency = 7
Average packet latency = 188.433
Maximum packet latency = 519
Minimum network latency = 8
Average network latency = 133.416
Maximum network latency = 519
Slowest packet = 1483
Minimum flit latency = 8
Average flit latency = 133.416
Maximum flit latency = 519
Slowest flit = 1711
Minimum fragmentation = 0
Average fragmentation = 0
Maximum fragmentation = 0
Minimum injected packet rate = 0.173 (at node 10)
Average injected packet rate = 0.194062
Maximum injected packet rate = 0.226 (at node 0)
Minimum accepted packet rate = 0.143 (at node 14)
Average accepted packet rate = 0.162
Maximum accepted packet rate = 0.173 (at node 1)
Minimum injected flit rate = 0.173 (at node 10)
Average injected flit rate = 0.194062
Maximum injected flit rate = 0.226 (at node 0)
Minimum accepted flit rate = 0.143 (at node 14)
Average accepted flit rate = 0.162
Maximum accepted flit rate = 0.173 (at node 1)
Total number of injected packets = 3105
Total number of injected flits = 3105
Average injected packet length = 1
Total number of accepted packets = 2592
Total number of accepted flits = 2592
Average accepted packet length = 1
Total in-flight flits = 526 (0 measured)
===== Time: 2000 =====
Class 0:
Minimum packet latency = 7
Average packet latency = 380.151
Maximum packet latency = 988
Minimum network latency = 8
Average network latency = 166.956
Maximum network latency = 828
Slowest packet = 2470
Minimum flit latency = 8
Average flit latency = 166.956
Maximum flit latency = 828
Slowest flit = 2470
Minimum fragmentation = 0
Average fragmentation = 0
Maximum fragmentation = 0
Minimum injected packet rate = 0.1605 (at node 10)
Average injected packet rate = 0.179219
Maximum injected packet rate = 0.2195 (at node 7)
Minimum accepted packet rate = 0.148 (at node 4)
Average accepted packet rate = 0.162625
Maximum accepted packet rate = 0.174 (at node 1)
Minimum injected flit rate = 0.1605 (at node 10)
Average injected flit rate = 0.179219
Maximum injected flit rate = 0.2195 (at node 7)
Minimum accepted flit rate = 0.148 (at node 4)
Average accepted flit rate = 0.162625
Maximum accepted flit rate = 0.174 (at node 1)
Total number of injected packets = 5735
Total number of injected flits = 5735
Average injected packet length = 1
Total number of accepted packets = 5204
Total number of accepted flits = 5204
Average accepted packet length = 1
Total in-flight flits = 545 (0 measured)
===== Time: 3000 =====
Class 0:
Minimum packet latency = 374
Average packet latency = 955.187
Maximum packet latency = 1575
Minimum network latency = 47
Average network latency = 199.262
Maximum network latency = 807
Slowest packet = 5346
Minimum flit latency = 47
Average flit latency = 199.262
Maximum flit latency = 807
Slowest flit = 4027
Minimum fragmentation = 0
Average fragmentation = 0
Maximum fragmentation = 0
Minimum injected packet rate = 0.116 (at node 6)
Average injected packet rate = 0.1595
Maximum injected packet rate = 0.222 (at node 5)
Minimum accepted packet rate = 0.148 (at node 3)
Average accepted packet rate = 0.161438
Maximum accepted packet rate = 0.18 (at node 6)
Minimum injected flit rate = 0.116 (at node 6)
Average injected flit rate = 0.1595
Maximum injected flit rate = 0.222 (at node 5)
Minimum accepted flit rate = 0.148 (at node 3)
Average accepted flit rate = 0.161438
Maximum accepted flit rate = 0.18 (at node 6)
Total number of injected packets = 2552
Total number of injected flits = 2552
Average injected packet length = 1
Total number of accepted packets = 2583
Total number of accepted flits = 2583
Average accepted packet length = 1
Total in-flight flits = 514 (0 measured)
===== Time: 4000 =====
Class 0:
Minimum packet latency = 758
Average packet latency = 1353.54
Maximum packet latency = 2094
Minimum network latency = 46
Average network latency = 177.854
Maximum network latency = 781
Slowest packet = 8303
Minimum flit latency = 46
Average flit latency = 195.966
Maximum flit latency = 891
Slowest flit = 8126
Minimum fragmentation = 0
Average fragmentation = 0
Maximum fragmentation = 0
Minimum injected packet rate = 0.104 (at node 2)
Average injected packet rate = 0.162438
Maximum injected packet rate = 0.196 (at node 0)
Minimum accepted packet rate = 0.124 (at node 4)
Average accepted packet rate = 0.162312
Maximum accepted packet rate = 0.186 (at node 7)
Minimum injected flit rate = 0.104 (at node 2)
Average injected flit rate = 0.162438
Maximum injected flit rate = 0.196 (at node 0)
Minimum accepted flit rate = 0.124 (at node 4)
Average accepted flit rate = 0.162312
Maximum accepted flit rate = 0.186 (at node 7)
Total number of injected packets = 2599
Total number of injected flits = 2599
Average injected packet length = 1
Total number of accepted packets = 2597
Total number of accepted flits = 2597
Average accepted packet length = 1
Total in-flight flits = 517 (517 measured)
===== Time: 5000 =====
Class 0:
Minimum packet latency = 758
Average packet latency = 1553.05
Maximum packet latency = 2725
Minimum network latency = 43
Average network latency = 187.192
Maximum network latency = 832
Slowest packet = 8303
Minimum flit latency = 43
Average flit latency = 195.376
Maximum flit latency = 891
Slowest flit = 8126
Minimum fragmentation = 0
Average fragmentation = 0
Maximum fragmentation = 0
Minimum injected packet rate = 0.0925 (at node 2)
Average injected packet rate = 0.160688
Maximum injected packet rate = 0.205 (at node 4)
Minimum accepted packet rate = 0.1405 (at node 4)
Average accepted packet rate = 0.161281
Maximum accepted packet rate = 0.1805 (at node 7)
Minimum injected flit rate = 0.0925 (at node 2)
Average injected flit rate = 0.160688
Maximum injected flit rate = 0.205 (at node 4)
Minimum accepted flit rate = 0.1405 (at node 4)
Average accepted flit rate = 0.161281
Maximum accepted flit rate = 0.1805 (at node 7)
Total number of injected packets = 5142
Total number of injected flits = 5142
Average injected packet length = 1
Total number of accepted packets = 5161
Total number of accepted flits = 5161
Average accepted packet length = 1
Total in-flight flits = 496 (496 measured)
===== Time: 6000 =====
Class 0:
Minimum packet latency = 758
Average packet latency = 1743.3
Maximum packet latency = 3484
Minimum network latency = 43
Average network latency = 190.453
Maximum network latency = 1091
Slowest packet = 8303
Minimum flit latency = 43
Average flit latency = 195.773
Maximum flit latency = 1091
Slowest flit = 12869
Minimum fragmentation = 0
Average fragmentation = 0
Maximum fragmentation = 0
Minimum injected packet rate = 0.0906667 (at node 2)
Average injected packet rate = 0.158729
Maximum injected packet rate = 0.211333 (at node 4)
Minimum accepted packet rate = 0.142333 (at node 4)
Average accepted packet rate = 0.158833
Maximum accepted packet rate = 0.174333 (at node 7)
Minimum injected flit rate = 0.0906667 (at node 2)
Average injected flit rate = 0.158729
Maximum injected flit rate = 0.211333 (at node 4)
Minimum accepted flit rate = 0.142333 (at node 4)
Average accepted flit rate = 0.158833
Maximum accepted flit rate = 0.174333 (at node 7)
Total number of injected packets = 7619
Total number of injected flits = 7619
Average injected packet length = 1
Total number of accepted packets = 7624
Total number of accepted flits = 7624
Average accepted packet length = 1
Total in-flight flits = 509 (509 measured)
Draining remaining packets ...
Class 0:
Remaining flits: 13366 13674 13848 13961 13980 14278 14289 14312 14322 14323 [...] (479 flits)
Measured flits: 13366 13674 13848 13961 13980 14278 14289 14312 14322 14323 [...] (479 flits)
Class 0:
Remaining flits: 13366 13848 13961 13980 14289 14312 14322 14323 14442 14446 [...] (453 flits)
Measured flits: 13366 13848 13961 13980 14289 14312 14322 14323 14442 14446 [...] (453 flits)
Class 0:
Remaining flits: 13366 13848 13961 14289 14312 14322 14323 14442 14446 14489 [...] (436 flits)
Measured flits: 13366 13848 13961 14289 14312 14322 14323 14442 14446 14489 [...] (436 flits)
Class 0:
Remaining flits: 13366 13848 14289 14312 14322 14323 14442 14446 14489 14546 [...] (405 flits)
Measured flits: 13366 13848 14289 14312 14322 14323 14442 14446 14489 14546 [...] (405 flits)
Class 0:
Remaining flits: 13366 13848 14289 14312 14322 14323 14442 14446 14489 14546 [...] (376 flits)
Measured flits: 13366 13848 14289 14312 14322 14323 14442 14446 14489 14546 [...] (376 flits)
Class 0:
Remaining flits: 13366 13848 14289 14312 14322 14323 14442 14446 14489 14546 [...] (352 flits)
Measured flits: 13366 13848 14289 14312 14322 14323 14442 14446 14489 14546 [...] (352 flits)
Class 0:
Remaining flits: 13366 13848 14289 14312 14322 14323 14442 14446 14489 14697 [...] (330 flits)
Measured flits: 13366 13848 14289 14312 14322 14323 14442 14446 14489 14697 [...] (330 flits)
Class 0:
Remaining flits: 13366 13848 14289 14312 14322 14323 14442 14446 14489 14697 [...] (302 flits)
Measured flits: 13366 13848 14289 14312 14322 14323 14442 14446 14489 14697 [...] (302 flits)
Class 0:
Remaining flits: 13366 13848 14289 14312 14322 14323 14442 14446 14489 14697 [...] (276 flits)
Measured flits: 13366 13848 14289 14312 14322 14323 14442 14446 14489 14697 [...] (276 flits)
Class 0:
Remaining flits: 13366 13848 14289 14312 14322 14323 14442 14446 14489 14697 [...] (253 flits)
Measured flits: 13366 13848 14289 14312 14322 14323 14442 14446 14489 14697 [...] (253 flits)
Class 0:
Remaining flits: 13366 13848 14289 14312 14322 14323 14442 14446 14489 14697 [...] (227 flits)
Measured flits: 13366 13848 14289 14312 14322 14323 14442 14446 14489 14697 [...] (227 flits)
Class 0:
Remaining flits: 13366 14289 14312 14322 14323 14442 14446 14489 14697 14734 [...] (211 flits)
Measured flits: 13366 14289 14312 14322 14323 14442 14446 14489 14697 14734 [...] (211 flits)
Class 0:
Remaining flits: 14289 14312 14322 14323 14442 14446 14489 14697 14734 14805 [...] (188 flits)
Measured flits: 14289 14312 14322 14323 14442 14446 14489 14697 14734 14805 [...] (188 flits)
Class 0:
Remaining flits: 14289 14312 14322 14323 14442 14446 14489 14734 14805 14808 [...] (170 flits)
Measured flits: 14289 14312 14322 14323 14442 14446 14489 14734 14805 14808 [...] (170 flits)
Class 0:
Remaining flits: 14289 14312 14322 14323 14442 14446 14489 14734 14805 14808 [...] (152 flits)
Measured flits: 14289 14312 14322 14323 14442 14446 14489 14734 14805 14808 [...] (152 flits)
Class 0:
Remaining flits: 14289 14312 14322 14323 14442 14446 14489 14734 14805 14808 [...] (136 flits)
Measured flits: 14289 14312 14322 14323 14442 14446 14489 14734 14805 14808 [...] (136 flits)
Class 0:
Remaining flits: 14289 14312 14322 14442 14446 14489 14734 14805 14808 14825 [...] (121 flits)
Measured flits: 14289 14312 14322 14442 14446 14489 14734 14805 14808 14825 [...] (121 flits)
Class 0:
Remaining flits: 14289 14312 14322 14442 14446 14489 14734 14805 14808 14825 [...] (107 flits)
Measured flits: 14289 14312 14322 14442 14446 14489 14734 14805 14808 14825 [...] (107 flits)
Class 0:
Remaining flits: 14289 14312 14322 14442 14446 14489 14734 14808 14825 14854 [...] (91 flits)
Measured flits: 14289 14312 14322 14442 14446 14489 14734 14808 14825 14854 [...] (91 flits)
Class 0:
Remaining flits: 14289 14312 14322 14442 14446 14489 14734 14808 14825 14854 [...] (84 flits)
Measured flits: 14289 14312 14322 14442 14446 14489 14734 14808 14825 14854 [...] (84 flits)
Class 0:
Remaining flits: 14289 14312 14322 14442 14446 14489 14734 14808 14825 14854 [...] (75 flits)
Measured flits: 14289 14312 14322 14442 14446 14489 14734 14808 14825 14854 [...] (75 flits)
Class 0:
Remaining flits: 14289 14442 14446 14489 14734 14808 14825 14854 14859 14862 [...] (60 flits)
Measured flits: 14289 14442 14446 14489 14734 14808 14825 14854 14859 14862 [...] (60 flits)
Class 0:
Remaining flits: 14289 14446 14489 14734 14808 14825 14854 14859 14862 15171 [...] (53 flits)
Measured flits: 14289 14446 14489 14734 14808 14825 14854 14859 14862 15171 [...] (53 flits)
Class 0:
Remaining flits: 14289 14446 14489 14734 14808 14854 14859 14862 15171 15183 [...] (49 flits)
Measured flits: 14289 14446 14489 14734 14808 14854 14859 14862 15171 15183 [...] (49 flits)
Class 0:
Remaining flits: 14289 14446 14489 14734 14808 14854 14859 14862 15171 15183 [...] (46 flits)
Measured flits: 14289 14446 14489 14734 14808 14854 14859 14862 15171 15183 [...] (46 flits)
Class 0:
Remaining flits: 14289 14446 14489 14734 14808 14854 14859 14862 15171 15183 [...] (42 flits)
Measured flits: 14289 14446 14489 14734 14808 14854 14859 14862 15171 15183 [...] (42 flits)
Class 0:
Remaining flits: 14289 14446 14489 14734 14808 14854 14859 14862 15171 15183 [...] (41 flits)
Measured flits: 14289 14446 14489 14734 14808 14854 14859 14862 15171 15183 [...] (41 flits)
Class 0:
Remaining flits: 14289 14446 14489 14808 14854 14862 15171 15183 15211 15216 [...] (39 flits)
Measured flits: 14289 14446 14489 14808 14854 14862 15171 15183 15211 15216 [...] (39 flits)
Class 0:
Remaining flits: 14289 14446 14489 14808 14854 14862 15171 15183 15211 15216 [...] (36 flits)
Measured flits: 14289 14446 14489 14808 14854 14862 15171 15183 15211 15216 [...] (36 flits)
Class 0:
Remaining flits: 14289 14446 14489 14808 14854 14862 15171 15183 15211 15216 [...] (36 flits)
Measured flits: 14289 14446 14489 14808 14854 14862 15171 15183 15211 15216 [...] (36 flits)
Class 0:
Remaining flits: 14289 14446 14808 14854 14862 15171 15183 15211 15216 15509 [...] (33 flits)
Measured flits: 14289 14446 14808 14854 14862 15171 15183 15211 15216 15509 [...] (33 flits)
Class 0:
Remaining flits: 14289 14446 14808 14862 15171 15183 15211 15216 15509 15563 [...] (30 flits)
Measured flits: 14289 14446 14808 14862 15171 15183 15211 15216 15509 15563 [...] (30 flits)
Class 0:
Remaining flits: 14289 14446 14808 14862 15171 15183 15211 15216 15509 15563 [...] (30 flits)
Measured flits: 14289 14446 14808 14862 15171 15183 15211 15216 15509 15563 [...] (30 flits)
Class 0:
Remaining flits: 14289 14446 14862 15171 15183 15211 15216 15509 15563 15570 [...] (27 flits)
Measured flits: 14289 14446 14862 15171 15183 15211 15216 15509 15563 15570 [...] (27 flits)
Class 0:
Remaining flits: 14446 14862 15211 15216 15509 15563 15570 15596 15616 15717 [...] (23 flits)
Measured flits: 14446 14862 15211 15216 15509 15563 15570 15596 15616 15717 [...] (23 flits)
Class 0:
Remaining flits: 14446 14862 15211 15509 15563 15570 15596 15717 15718 15787 [...] (20 flits)
Measured flits: 14446 14862 15211 15509 15563 15570 15596 15717 15718 15787 [...] (20 flits)
Class 0:
Remaining flits: 14862 15211 15509 15570 15596 15717 15718 15787 15858 15877 [...] (17 flits)
Measured flits: 14862 15211 15509 15570 15596 15717 15718 15787 15858 15877 [...] (17 flits)
Class 0:
Remaining flits: 14862 15211 15509 15570 15596 15717 15718 15787 15858 15877 [...] (17 flits)
Measured flits: 14862 15211 15509 15570 15596 15717 15718 15787 15858 15877 [...] (17 flits)
Class 0:
Remaining flits: 14862 15211 15509 15570 15596 15717 15718 15787 15858 15881 [...] (16 flits)
Measured flits: 14862 15211 15509 15570 15596 15717 15718 15787 15858 15881 [...] (16 flits)
Class 0:
Remaining flits: 14862 15211 15509 15570 15596 15717 15718 15787 15881 15905 [...] (14 flits)
Measured flits: 14862 15211 15509 15570 15596 15717 15718 15787 15881 15905 [...] (14 flits)
Class 0:
Remaining flits: 14862 15211 15717 15718 15787 15881 15905 15912 15915 15918 [...] (11 flits)
Measured flits: 14862 15211 15717 15718 15787 15881 15905 15912 15915 15918 [...] (11 flits)
Class 0:
Remaining flits: 14862 15211 15717 15718 15881 15905 15912 15915 15918 15919 (10 flits)
Measured flits: 14862 15211 15717 15718 15881 15905 15912 15915 15918 15919 (10 flits)
Class 0:
Remaining flits: 14862 15717 15718 15881 15905 15912 15915 15918 15919 (9 flits)
Measured flits: 14862 15717 15718 15881 15905 15912 15915 15918 15919 (9 flits)
Class 0:
Remaining flits: 15717 15718 15881 15912 15915 15918 15919 (7 flits)
Measured flits: 15717 15718 15881 15912 15915 15918 15919 (7 flits)
Class 0:
Remaining flits: 15717 15718 15881 15912 15915 15918 15919 (7 flits)
Measured flits: 15717 15718 15881 15912 15915 15918 15919 (7 flits)
Class 0:
Remaining flits: 15717 15718 15881 15912 15915 15918 15919 (7 flits)
Measured flits: 15717 15718 15881 15912 15915 15918 15919 (7 flits)
Class 0:
Remaining flits: 15717 15718 15881 15912 15915 15918 15919 (7 flits)
Measured flits: 15717 15718 15881 15912 15915 15918 15919 (7 flits)
Class 0:
Remaining flits: 15717 15718 15881 15912 15915 15918 15919 (7 flits)
Measured flits: 15717 15718 15881 15912 15915 15918 15919 (7 flits)
Class 0:
Remaining flits: 15717 15718 15881 15912 15915 15918 15919 (7 flits)
Measured flits: 15717 15718 15881 15912 15915 15918 15919 (7 flits)
Class 0:
Remaining flits: 15717 15718 15881 15912 15915 15918 15919 (7 flits)
Measured flits: 15717 15718 15881 15912 15915 15918 15919 (7 flits)
Class 0:
Remaining flits: 15717 15718 15881 15912 15915 15918 15919 (7 flits)
Measured flits: 15717 15718 15881 15912 15915 15918 15919 (7 flits)
Class 0:
Remaining flits: 15717 15718 15881 15912 15915 15918 15919 (7 flits)
Measured flits: 15717 15718 15881 15912 15915 15918 15919 (7 flits)
Class 0:
Remaining flits: 15717 15718 15881 15912 15915 15918 15919 (7 flits)
Measured flits: 15717 15718 15881 15912 15915 15918 15919 (7 flits)
Class 0:
Remaining flits: 15717 15718 15881 15912 15915 15918 15919 (7 flits)
Measured flits: 15717 15718 15881 15912 15915 15918 15919 (7 flits)
Class 0:
Remaining flits: 15717 15718 15881 15912 15915 15918 15919 (7 flits)
Measured flits: 15717 15718 15881 15912 15915 15918 15919 (7 flits)
Class 0:
Remaining flits: 15717 15718 15881 15912 15915 15918 15919 (7 flits)
Measured flits: 15717 15718 15881 15912 15915 15918 15919 (7 flits)
Class 0:
Remaining flits: 15717 15718 15881 15912 15915 15918 15919 (7 flits)
Measured flits: 15717 15718 15881 15912 15915 15918 15919 (7 flits)
Class 0:
Remaining flits: 15717 15718 15881 15912 15915 15918 15919 (7 flits)
Measured flits: 15717 15718 15881 15912 15915 15918 15919 (7 flits)
Class 0:
Remaining flits: 15717 15718 15881 15912 15915 15918 15919 (7 flits)
Measured flits: 15717 15718 15881 15912 15915 15918 15919 (7 flits)
Class 0:
Remaining flits: 15717 15718 15881 15912 15915 15918 15919 (7 flits)
Measured flits: 15717 15718 15881 15912 15915 15918 15919 (7 flits)
Class 0:
Remaining flits: 15717 15718 15881 15912 15915 15918 15919 (7 flits)
Measured flits: 15717 15718 15881 15912 15915 15918 15919 (7 flits)
Class 0:
Remaining flits: 15717 15718 15881 15912 15915 15918 15919 (7 flits)
Measured flits: 15717 15718 15881 15912 15915 15918 15919 (7 flits)
Class 0:
Remaining flits: 15717 15718 15881 15912 15915 15918 15919 (7 flits)
Measured flits: 15717 15718 15881 15912 15915 15918 15919 (7 flits)
Class 0:
Remaining flits: 15717 15718 15881 15912 15915 15918 15919 (7 flits)
Measured flits: 15717 15718 15881 15912 15915 15918 15919 (7 flits)
Class 0:
Remaining flits: 15717 15718 15881 15912 15915 15918 15919 (7 flits)
Measured flits: 15717 15718 15881 15912 15915 15918 15919 (7 flits)
Class 0:
Remaining flits: 15717 15718 15881 15912 15915 15918 15919 (7 flits)
Measured flits: 15717 15718 15881 15912 15915 15918 15919 (7 flits)
Class 0:
Remaining flits: 15717 15718 15881 15912 15915 15918 15919 (7 flits)
Measured flits: 15717 15718 15881 15912 15915 15918 15919 (7 flits)
Class 0:
Remaining flits: 15717 15718 15881 15912 15915 15918 15919 (7 flits)
Measured flits: 15717 15718 15881 15912 15915 15918 15919 (7 flits)
Class 0:
Remaining flits: 15717 15718 15881 15912 15915 15918 15919 (7 flits)
Measured flits: 15717 15718 15881 15912 15915 15918 15919 (7 flits)
Class 0:
Remaining flits: 15717 15718 15881 15912 15915 15918 15919 (7 flits)
Measured flits: 15717 15718 15881 15912 15915 15918 15919 (7 flits)
Class 0:
Remaining flits: 15717 15718 15881 15912 15915 15918 15919 (7 flits)
Measured flits: 15717 15718 15881 15912 15915 15918 15919 (7 flits)
Class 0:
Remaining flits: 15717 15718 15881 15912 15915 15918 15919 (7 flits)
Measured flits: 15717 15718 15881 15912 15915 15918 15919 (7 flits)
Class 0:
Remaining flits: 15717 15718 15881 15912 15915 15918 15919 (7 flits)
Measured flits: 15717 15718 15881 15912 15915 15918 15919 (7 flits)
Class 0:
Remaining flits: 15717 15718 15881 15912 15915 15918 15919 (7 flits)
Measured flits: 15717 15718 15881 15912 15915 15918 15919 (7 flits)
Class 0:
Remaining flits: 15717 15718 15881 15912 15915 15918 15919 (7 flits)
Measured flits: 15717 15718 15881 15912 15915 15918 15919 (7 flits)
Class 0:
Remaining flits: 15717 15718 15881 15912 15915 15918 15919 (7 flits)
Measured flits: 15717 15718 15881 15912 15915 15918 15919 (7 flits)
Class 0:
Remaining flits: 15717 15718 15881 15912 15915 15918 15919 (7 flits)
Measured flits: 15717 15718 15881 15912 15915 15918 15919 (7 flits)
Class 0:
Remaining flits: 15717 15718 15881 15912 15915 15918 15919 (7 flits)
Measured flits: 15717 15718 15881 15912 15915 15918 15919 (7 flits)
Class 0:
Remaining flits: 15717 15718 15881 15912 15915 15918 15919 (7 flits)
Measured flits: 15717 15718 15881 15912 15915 15918 15919 (7 flits)
Class 0:
Remaining flits: 15717 15718 15881 15912 15915 15918 15919 (7 flits)
Measured flits: 15717 15718 15881 15912 15915 15918 15919 (7 flits)
Class 0:
Remaining flits: 15717 15718 15881 15912 15915 15918 15919 (7 flits)
Measured flits: 15717 15718 15881 15912 15915 15918 15919 (7 flits)
Class 0:
Remaining flits: 15717 15718 15881 15912 15915 15918 15919 (7 flits)
Measured flits: 15717 15718 15881 15912 15915 15918 15919 (7 flits)
Class 0:
Remaining flits: 15717 15718 15881 15912 15915 15918 15919 (7 flits)
Measured flits: 15717 15718 15881 15912 15915 15918 15919 (7 flits)
Class 0:
Remaining flits: 15717 15718 15881 15912 15915 15918 15919 (7 flits)
Measured flits: 15717 15718 15881 15912 15915 15918 15919 (7 flits)
Class 0:
Remaining flits: 15717 15718 15881 15912 15915 15918 15919 (7 flits)
Measured flits: 15717 15718 15881 15912 15915 15918 15919 (7 flits)
Class 0:
Remaining flits: 15717 15718 15881 15912 15915 15918 15919 (7 flits)
Measured flits: 15717 15718 15881 15912 15915 15918 15919 (7 flits)
Class 0:
Remaining flits: 15717 15718 15881 15912 15915 15918 15919 (7 flits)
Measured flits: 15717 15718 15881 15912 15915 15918 15919 (7 flits)
Class 0:
Remaining flits: 15717 15718 15881 15912 15915 15918 15919 (7 flits)
Measured flits: 15717 15718 15881 15912 15915 15918 15919 (7 flits)
Class 0:
Remaining flits: 15717 15718 15881 15912 15915 15918 15919 (7 flits)
Measured flits: 15717 15718 15881 15912 15915 15918 15919 (7 flits)
Class 0:
Remaining flits: 15717 15718 15881 15912 15915 15918 15919 (7 flits)
Measured flits: 15717 15718 15881 15912 15915 15918 15919 (7 flits)
Class 0:
Remaining flits: 15717 15718 15881 15912 15915 15918 15919 (7 flits)
Measured flits: 15717 15718 15881 15912 15915 15918 15919 (7 flits)
Class 0:
Remaining flits: 15717 15718 15881 15912 15915 15918 15919 (7 flits)
Measured flits: 15717 15718 15881 15912 15915 15918 15919 (7 flits)
Class 0:
Remaining flits: 15717 15718 15881 15912 15915 15918 15919 (7 flits)
Measured flits: 15717 15718 15881 15912 15915 15918 15919 (7 flits)
Class 0:
Remaining flits: 15717 15718 15881 15912 15915 15918 15919 (7 flits)
Measured flits: 15717 15718 15881 15912 15915 15918 15919 (7 flits)
Class 0:
Remaining flits: 15717 15718 15881 15912 15915 15918 15919 (7 flits)
Measured flits: 15717 15718 15881 15912 15915 15918 15919 (7 flits)
Class 0:
Remaining flits: 15717 15718 15881 15912 15915 15918 15919 (7 flits)
Measured flits: 15717 15718 15881 15912 15915 15918 15919 (7 flits)
Class 0:
Remaining flits: 15717 15718 15881 15912 15915 15918 15919 (7 flits)
Measured flits: 15717 15718 15881 15912 15915 15918 15919 (7 flits)
Class 0:
Remaining flits: 15717 15718 15881 15912 15915 15918 15919 (7 flits)
Measured flits: 15717 15718 15881 15912 15915 15918 15919 (7 flits)
Class 0:
Remaining flits: 15717 15718 15881 15912 15915 15918 15919 (7 flits)
Measured flits: 15717 15718 15881 15912 15915 15918 15919 (7 flits)
Class 0:
Remaining flits: 15717 15718 15881 15912 15915 15918 15919 (7 flits)
Measured flits: 15717 15718 15881 15912 15915 15918 15919 (7 flits)
Class 0:
Remaining flits: 15717 15718 15881 15912 15915 15918 15919 (7 flits)
Measured flits: 15717 15718 15881 15912 15915 15918 15919 (7 flits)
Time taken is 7000 cycles
====== Traffic class 0 ======

Total number of flits generated = 15920, changed lanes = 15685
Overall minimum packet latency = 758 (1 samples)
Overall average packet latency = 1792.01 (1 samples)
Overall maximum packet latency = 3769 (1 samples)
Overall minimum network latency = 43 (1 samples)
Overall average network latency = 194.13 (1 samples)
Overall maximum network latency = 1152 (1 samples)
Overall minimum flit latency = 43 (1 samples)
Overall average flit latency = 198.889 (1 samples)
Overall maximum flit latency = 1152 (1 samples)
Overall minimum fragmentation = 0 (1 samples)
Overall average fragmentation = 0 (1 samples)
Overall maximum fragmentation = 0 (1 samples)
Overall minimum injected packet rate = 0.0906667 (1 samples)
Overall average injected packet rate = 0.158729 (1 samples)
Overall maximum injected packet rate = 0.211333 (1 samples)
Overall minimum accepted packet rate = 0.142333 (1 samples)
Overall average accepted packet rate = 0.158833 (1 samples)
Overall maximum accepted packet rate = 0.174333 (1 samples)
Overall minimum injected flit rate = 0.0906667 (1 samples)
Overall average injected flit rate = 0.158729 (1 samples)
Overall maximum injected flit rate = 0.211333 (1 samples)
Overall minimum accepted flit rate = 0.142333 (1 samples)
Overall average accepted flit rate = 0.158833 (1 samples)
Overall maximum accepted flit rate = 0.174333 (1 samples)
Overall average injected packet size = 1 (1 samples)
Overall average accepted packet size = 1 (1 samples)
Overall average hops = 3.52601 (1 samples)
Overall throughput of the network (flits/cycle) = 5.30433
Overall throughput of the network (packets/cycle) = 5.30433
Total run time 6209.67
