make: Nothing to be done for 'all'.
Master: Running timer....
Master: Running SRC....
BEGIN Configuration File: ./examples/bitrev
// Topology

topology = mesh;
k = 4;
n = 2;

// Routing
routing_function = dor;

// Flow control
num_vcs     = 4;
vc_buf_size = 4;
wait_for_tail_credit = 0;

// Router architecture
vc_allocator = islip;
sw_allocator = islip;
alloc_iters  = 1;

credit_delay   = 1;
routing_delay  = 1;
vc_alloc_delay = 1;
sw_alloc_delay = 1;

input_speedup     = 1;
output_speedup    = 1;
internal_speedup  = 1.0;

vc_busy_when_full = 0;

// Traffic
traffic = uniform;
packet_size = 1;

// Simulation
sim_type = throughput;

injection_rate = 0.11;

END Configuration File: ./examples/bitrev
===== Time: 1000 =====
Class 0:
Minimum packet latency = 7
Average packet latency = 38.1667
Maximum packet latency = 99
Minimum network latency = 8
Average network latency = 39.1667
Maximum network latency = 100
Slowest packet = 1531
Minimum flit latency = 8
Average flit latency = 39.1667
Maximum flit latency = 100
Slowest flit = 1531
Minimum fragmentation = 0
Average fragmentation = 0
Maximum fragmentation = 0
Minimum injected packet rate = 0.092 (at node 8)
Average injected packet rate = 0.10675
Maximum injected packet rate = 0.123 (at node 10)
Minimum accepted packet rate = 0.088 (at node 14)
Average accepted packet rate = 0.103125
Maximum accepted packet rate = 0.11 (at node 1)
Minimum injected flit rate = 0.092 (at node 8)
Average injected flit rate = 0.10675
Maximum injected flit rate = 0.123 (at node 10)
Minimum accepted flit rate = 0.088 (at node 14)
Average accepted flit rate = 0.103125
Maximum accepted flit rate = 0.11 (at node 1)
Total number of injected packets = 1708
Total number of injected flits = 1708
Average injected packet length = 1
Total number of accepted packets = 1650
Total number of accepted flits = 1650
Average accepted packet length = 1
Total in-flight flits = 58 (0 measured)
===== Time: 2000 =====
Class 0:
Minimum packet latency = 7
Average packet latency = 39.2475
Maximum packet latency = 211
Minimum network latency = 8
Average network latency = 40.2475
Maximum network latency = 212
Slowest packet = 2052
Minimum flit latency = 8
Average flit latency = 40.2475
Maximum flit latency = 212
Slowest flit = 2052
Minimum fragmentation = 0
Average fragmentation = 0
Maximum fragmentation = 0
Minimum injected packet rate = 0.0955 (at node 7)
Average injected packet rate = 0.104938
Maximum injected packet rate = 0.112 (at node 13)
Minimum accepted packet rate = 0.095 (at node 14)
Average accepted packet rate = 0.102781
Maximum accepted packet rate = 0.1145 (at node 15)
Minimum injected flit rate = 0.0955 (at node 7)
Average injected flit rate = 0.104938
Maximum injected flit rate = 0.112 (at node 13)
Minimum accepted flit rate = 0.095 (at node 14)
Average accepted flit rate = 0.102781
Maximum accepted flit rate = 0.1145 (at node 15)
Total number of injected packets = 3358
Total number of injected flits = 3358
Average injected packet length = 1
Total number of accepted packets = 3289
Total number of accepted flits = 3289
Average accepted packet length = 1
Total in-flight flits = 69 (0 measured)
===== Time: 3000 =====
Class 0:
Minimum packet latency = 7
Average packet latency = 40.5542
Maximum packet latency = 113
Minimum network latency = 8
Average network latency = 41.5542
Maximum network latency = 114
Slowest packet = 3383
Minimum flit latency = 8
Average flit latency = 41.5542
Maximum flit latency = 114
Slowest flit = 3383
Minimum fragmentation = 0
Average fragmentation = 0
Maximum fragmentation = 0
Minimum injected packet rate = 0.1 (at node 0)
Average injected packet rate = 0.111625
Maximum injected packet rate = 0.124 (at node 6)
Minimum accepted packet rate = 0.09 (at node 4)
Average accepted packet rate = 0.111187
Maximum accepted packet rate = 0.136 (at node 11)
Minimum injected flit rate = 0.1 (at node 0)
Average injected flit rate = 0.111625
Maximum injected flit rate = 0.124 (at node 6)
Minimum accepted flit rate = 0.09 (at node 4)
Average accepted flit rate = 0.111187
Maximum accepted flit rate = 0.136 (at node 11)
Total number of injected packets = 1786
Total number of injected flits = 1786
Average injected packet length = 1
Total number of accepted packets = 1779
Total number of accepted flits = 1779
Average accepted packet length = 1
Total in-flight flits = 76 (0 measured)
===== Time: 4000 =====
Class 0:
Minimum packet latency = 7
Average packet latency = 40.5286
Maximum packet latency = 130
Minimum network latency = 8
Average network latency = 41.5286
Maximum network latency = 131
Slowest packet = 5280
Minimum flit latency = 8
Average flit latency = 42.0311
Maximum flit latency = 131
Slowest flit = 5280
Minimum fragmentation = 0
Average fragmentation = 0
Maximum fragmentation = 0
Minimum injected packet rate = 0.081 (at node 0)
Average injected packet rate = 0.110625
Maximum injected packet rate = 0.14 (at node 15)
Minimum accepted packet rate = 0.097 (at node 10)
Average accepted packet rate = 0.110687
Maximum accepted packet rate = 0.13 (at node 2)
Minimum injected flit rate = 0.081 (at node 0)
Average injected flit rate = 0.110625
Maximum injected flit rate = 0.14 (at node 15)
Minimum accepted flit rate = 0.097 (at node 10)
Average accepted flit rate = 0.110687
Maximum accepted flit rate = 0.13 (at node 2)
Total number of injected packets = 1770
Total number of injected flits = 1770
Average injected packet length = 1
Total number of accepted packets = 1771
Total number of accepted flits = 1771
Average accepted packet length = 1
Total in-flight flits = 75 (75 measured)
===== Time: 5000 =====
Class 0:
Minimum packet latency = 7
Average packet latency = 40.1976
Maximum packet latency = 150
Minimum network latency = 8
Average network latency = 41.1976
Maximum network latency = 151
Slowest packet = 8041
Minimum flit latency = 8
Average flit latency = 41.4596
Maximum flit latency = 151
Slowest flit = 8041
Minimum fragmentation = 0
Average fragmentation = 0
Maximum fragmentation = 0
Minimum injected packet rate = 0.096 (at node 14)
Average injected packet rate = 0.109313
Maximum injected packet rate = 0.132 (at node 15)
Minimum accepted packet rate = 0.0955 (at node 4)
Average accepted packet rate = 0.109125
Maximum accepted packet rate = 0.122 (at node 0)
Minimum injected flit rate = 0.096 (at node 14)
Average injected flit rate = 0.109313
Maximum injected flit rate = 0.132 (at node 15)
Minimum accepted flit rate = 0.0955 (at node 4)
Average accepted flit rate = 0.109125
Maximum accepted flit rate = 0.122 (at node 0)
Total number of injected packets = 3498
Total number of injected flits = 3498
Average injected packet length = 1
Total number of accepted packets = 3492
Total number of accepted flits = 3492
Average accepted packet length = 1
Total in-flight flits = 82 (82 measured)
===== Time: 6000 =====
Class 0:
Minimum packet latency = 7
Average packet latency = 40.4085
Maximum packet latency = 150
Minimum network latency = 8
Average network latency = 41.4085
Maximum network latency = 151
Slowest packet = 8041
Minimum flit latency = 8
Average flit latency = 41.5797
Maximum flit latency = 151
Slowest flit = 8041
Minimum fragmentation = 0
Average fragmentation = 0
Maximum fragmentation = 0
Minimum injected packet rate = 0.101333 (at node 0)
Average injected packet rate = 0.109417
Maximum injected packet rate = 0.126 (at node 15)
Minimum accepted packet rate = 0.0933333 (at node 4)
Average accepted packet rate = 0.109396
Maximum accepted packet rate = 0.121333 (at node 7)
Minimum injected flit rate = 0.101333 (at node 0)
Average injected flit rate = 0.109417
Maximum injected flit rate = 0.126 (at node 15)
Minimum accepted flit rate = 0.0933333 (at node 4)
Average accepted flit rate = 0.109396
Maximum accepted flit rate = 0.121333 (at node 7)
Total number of injected packets = 5252
Total number of injected flits = 5252
Average injected packet length = 1
Total number of accepted packets = 5251
Total number of accepted flits = 5251
Average accepted packet length = 1
Total in-flight flits = 77 (77 measured)
Draining remaining packets ...
Class 0:
Remaining flits: 10258 10286 10287 10291 10299 10308 10311 10318 10331 10332 [...] (53 flits)
Measured flits: 10258 10286 10287 10291 10299 10308 10311 10318 10331 10332 [...] (53 flits)
Class 0:
Remaining flits: 10286 10291 10318 10331 10339 10342 10346 10348 10354 10360 [...] (35 flits)
Measured flits: 10286 10291 10318 10331 10339 10342 10346 10348 10354 10360 [...] (35 flits)
Class 0:
Remaining flits: 10291 10318 10331 10339 10360 10361 10362 10363 10364 10367 [...] (24 flits)
Measured flits: 10291 10318 10331 10339 10360 10361 10362 10363 10364 10367 [...] (24 flits)
Class 0:
Remaining flits: 10318 10331 10361 10364 10367 10369 10378 10382 10383 10386 [...] (14 flits)
Measured flits: 10318 10331 10361 10364 10367 10369 10378 10382 10383 10386 [...] (14 flits)
Class 0:
Remaining flits: 10364 10367 10369 10383 10389 10395 (6 flits)
Measured flits: 10364 10367 10369 10383 10389 10395 (6 flits)
Class 0:
Remaining flits: 10383 10389 10395 (3 flits)
Measured flits: 10383 10389 10395 (3 flits)
Class 0:
Remaining flits: 10383 (1 flits)
Measured flits: 10383 (1 flits)
Class 0:
Remaining flits: 10383 (1 flits)
Measured flits: 10383 (1 flits)
Class 0:
Remaining flits: 10383 (1 flits)
Measured flits: 10383 (1 flits)
Class 0:
Remaining flits: 10383 (1 flits)
Measured flits: 10383 (1 flits)
Class 0:
Remaining flits: 10383 (1 flits)
Measured flits: 10383 (1 flits)
Class 0:
Remaining flits: 10383 (1 flits)
Measured flits: 10383 (1 flits)
Class 0:
Remaining flits: 10383 (1 flits)
Measured flits: 10383 (1 flits)
Class 0:
Remaining flits: 10383 (1 flits)
Measured flits: 10383 (1 flits)
Class 0:
Remaining flits: 10383 (1 flits)
Measured flits: 10383 (1 flits)
Class 0:
Remaining flits: 10383 (1 flits)
Measured flits: 10383 (1 flits)
Class 0:
Remaining flits: 10383 (1 flits)
Measured flits: 10383 (1 flits)
Class 0:
Remaining flits: 10383 (1 flits)
Measured flits: 10383 (1 flits)
Class 0:
Remaining flits: 10383 (1 flits)
Measured flits: 10383 (1 flits)
Class 0:
Remaining flits: 10383 (1 flits)
Measured flits: 10383 (1 flits)
Class 0:
Remaining flits: 10383 (1 flits)
Measured flits: 10383 (1 flits)
Class 0:
Remaining flits: 10383 (1 flits)
Measured flits: 10383 (1 flits)
Class 0:
Remaining flits: 10383 (1 flits)
Measured flits: 10383 (1 flits)
Class 0:
Remaining flits: 10383 (1 flits)
Measured flits: 10383 (1 flits)
Class 0:
Remaining flits: 10383 (1 flits)
Measured flits: 10383 (1 flits)
Class 0:
Remaining flits: 10383 (1 flits)
Measured flits: 10383 (1 flits)
Class 0:
Remaining flits: 10383 (1 flits)
Measured flits: 10383 (1 flits)
Class 0:
Remaining flits: 10383 (1 flits)
Measured flits: 10383 (1 flits)
Class 0:
Remaining flits: 10383 (1 flits)
Measured flits: 10383 (1 flits)
Class 0:
Remaining flits: 10383 (1 flits)
Measured flits: 10383 (1 flits)
Class 0:
Remaining flits: 10383 (1 flits)
Measured flits: 10383 (1 flits)
Class 0:
Remaining flits: 10383 (1 flits)
Measured flits: 10383 (1 flits)
Class 0:
Remaining flits: 10383 (1 flits)
Measured flits: 10383 (1 flits)
Class 0:
Remaining flits: 10383 (1 flits)
Measured flits: 10383 (1 flits)
Class 0:
Remaining flits: 10383 (1 flits)
Measured flits: 10383 (1 flits)
Class 0:
Remaining flits: 10383 (1 flits)
Measured flits: 10383 (1 flits)
Class 0:
Remaining flits: 10383 (1 flits)
Measured flits: 10383 (1 flits)
Class 0:
Remaining flits: 10383 (1 flits)
Measured flits: 10383 (1 flits)
Class 0:
Remaining flits: 10383 (1 flits)
Measured flits: 10383 (1 flits)
Class 0:
Remaining flits: 10383 (1 flits)
Measured flits: 10383 (1 flits)
Class 0:
Remaining flits: 10383 (1 flits)
Measured flits: 10383 (1 flits)
Class 0:
Remaining flits: 10383 (1 flits)
Measured flits: 10383 (1 flits)
Class 0:
Remaining flits: 10383 (1 flits)
Measured flits: 10383 (1 flits)
Class 0:
Remaining flits: 10383 (1 flits)
Measured flits: 10383 (1 flits)
Class 0:
Remaining flits: 10383 (1 flits)
Measured flits: 10383 (1 flits)
Class 0:
Remaining flits: 10383 (1 flits)
Measured flits: 10383 (1 flits)
Class 0:
Remaining flits: 10383 (1 flits)
Measured flits: 10383 (1 flits)
Class 0:
Remaining flits: 10383 (1 flits)
Measured flits: 10383 (1 flits)
Class 0:
Remaining flits: 10383 (1 flits)
Measured flits: 10383 (1 flits)
Class 0:
Remaining flits: 10383 (1 flits)
Measured flits: 10383 (1 flits)
Class 0:
Remaining flits: 10383 (1 flits)
Measured flits: 10383 (1 flits)
Class 0:
Remaining flits: 10383 (1 flits)
Measured flits: 10383 (1 flits)
Class 0:
Remaining flits: 10383 (1 flits)
Measured flits: 10383 (1 flits)
Class 0:
Remaining flits: 10383 (1 flits)
Measured flits: 10383 (1 flits)
Class 0:
Remaining flits: 10383 (1 flits)
Measured flits: 10383 (1 flits)
Class 0:
Remaining flits: 10383 (1 flits)
Measured flits: 10383 (1 flits)
Class 0:
Remaining flits: 10383 (1 flits)
Measured flits: 10383 (1 flits)
Class 0:
Remaining flits: 10383 (1 flits)
Measured flits: 10383 (1 flits)
Class 0:
Remaining flits: 10383 (1 flits)
Measured flits: 10383 (1 flits)
Class 0:
Remaining flits: 10383 (1 flits)
Measured flits: 10383 (1 flits)
Class 0:
Remaining flits: 10383 (1 flits)
Measured flits: 10383 (1 flits)
Class 0:
Remaining flits: 10383 (1 flits)
Measured flits: 10383 (1 flits)
Class 0:
Remaining flits: 10383 (1 flits)
Measured flits: 10383 (1 flits)
Class 0:
Remaining flits: 10383 (1 flits)
Measured flits: 10383 (1 flits)
Class 0:
Remaining flits: 10383 (1 flits)
Measured flits: 10383 (1 flits)
Class 0:
Remaining flits: 10383 (1 flits)
Measured flits: 10383 (1 flits)
Class 0:
Remaining flits: 10383 (1 flits)
Measured flits: 10383 (1 flits)
Class 0:
Remaining flits: 10383 (1 flits)
Measured flits: 10383 (1 flits)
Class 0:
Remaining flits: 10383 (1 flits)
Measured flits: 10383 (1 flits)
Class 0:
Remaining flits: 10383 (1 flits)
Measured flits: 10383 (1 flits)
Class 0:
Remaining flits: 10383 (1 flits)
Measured flits: 10383 (1 flits)
Class 0:
Remaining flits: 10383 (1 flits)
Measured flits: 10383 (1 flits)
Class 0:
Remaining flits: 10383 (1 flits)
Measured flits: 10383 (1 flits)
Class 0:
Remaining flits: 10383 (1 flits)
Measured flits: 10383 (1 flits)
Class 0:
Remaining flits: 10383 (1 flits)
Measured flits: 10383 (1 flits)
Class 0:
Remaining flits: 10383 (1 flits)
Measured flits: 10383 (1 flits)
Class 0:
Remaining flits: 10383 (1 flits)
Measured flits: 10383 (1 flits)
Class 0:
Remaining flits: 10383 (1 flits)
Measured flits: 10383 (1 flits)
Class 0:
Remaining flits: 10383 (1 flits)
Measured flits: 10383 (1 flits)
Class 0:
Remaining flits: 10383 (1 flits)
Measured flits: 10383 (1 flits)
Class 0:
Remaining flits: 10383 (1 flits)
Measured flits: 10383 (1 flits)
Class 0:
Remaining flits: 10383 (1 flits)
Measured flits: 10383 (1 flits)
Class 0:
Remaining flits: 10383 (1 flits)
Measured flits: 10383 (1 flits)
Class 0:
Remaining flits: 10383 (1 flits)
Measured flits: 10383 (1 flits)
Class 0:
Remaining flits: 10383 (1 flits)
Measured flits: 10383 (1 flits)
Class 0:
Remaining flits: 10383 (1 flits)
Measured flits: 10383 (1 flits)
Class 0:
Remaining flits: 10383 (1 flits)
Measured flits: 10383 (1 flits)
Class 0:
Remaining flits: 10383 (1 flits)
Measured flits: 10383 (1 flits)
Class 0:
Remaining flits: 10383 (1 flits)
Measured flits: 10383 (1 flits)
Class 0:
Remaining flits: 10383 (1 flits)
Measured flits: 10383 (1 flits)
Class 0:
Remaining flits: 10383 (1 flits)
Measured flits: 10383 (1 flits)
Class 0:
Remaining flits: 10383 (1 flits)
Measured flits: 10383 (1 flits)
Class 0:
Remaining flits: 10383 (1 flits)
Measured flits: 10383 (1 flits)
Class 0:
Remaining flits: 10383 (1 flits)
Measured flits: 10383 (1 flits)
Class 0:
Remaining flits: 10383 (1 flits)
Measured flits: 10383 (1 flits)
Class 0:
Remaining flits: 10383 (1 flits)
Measured flits: 10383 (1 flits)
Class 0:
Remaining flits: 10383 (1 flits)
Measured flits: 10383 (1 flits)
Class 0:
Remaining flits: 10383 (1 flits)
Measured flits: 10383 (1 flits)
Class 0:
Remaining flits: 10383 (1 flits)
Measured flits: 10383 (1 flits)
Class 0:
Remaining flits: 10383 (1 flits)
Measured flits: 10383 (1 flits)
Class 0:
Remaining flits: 10383 (1 flits)
Measured flits: 10383 (1 flits)
Time taken is 7000 cycles
====== Traffic class 0 ======

Total number of flits generated = 10396, changed lanes = 10034
Overall minimum packet latency = 7 (1 samples)
Overall average packet latency = 40.5563 (1 samples)
Overall maximum packet latency = 150 (1 samples)
Overall minimum network latency = 8 (1 samples)
Overall average network latency = 41.5563 (1 samples)
Overall maximum network latency = 151 (1 samples)
Overall minimum flit latency = 8 (1 samples)
Overall average flit latency = 41.7229 (1 samples)
Overall maximum flit latency = 151 (1 samples)
Overall minimum fragmentation = 0 (1 samples)
Overall average fragmentation = 0 (1 samples)
Overall maximum fragmentation = 0 (1 samples)
Overall minimum injected packet rate = 0.101333 (1 samples)
Overall average injected packet rate = 0.109417 (1 samples)
Overall maximum injected packet rate = 0.126 (1 samples)
Overall minimum accepted packet rate = 0.0933333 (1 samples)
Overall average accepted packet rate = 0.109396 (1 samples)
Overall maximum accepted packet rate = 0.121333 (1 samples)
Overall minimum injected flit rate = 0.101333 (1 samples)
Overall average injected flit rate = 0.109417 (1 samples)
Overall maximum injected flit rate = 0.126 (1 samples)
Overall minimum accepted flit rate = 0.0933333 (1 samples)
Overall average accepted flit rate = 0.109396 (1 samples)
Overall maximum accepted flit rate = 0.121333 (1 samples)
Overall average injected packet size = 1 (1 samples)
Overall average accepted packet size = 1 (1 samples)
Overall average hops = 3.52923 (1 samples)
Overall throughput of the network (flits/cycle) = 3.465
Overall throughput of the network (packets/cycle) = 3.465
Total run time 20.8951
