make: Nothing to be done for 'all'.
Master: Running timer....
Master: Running SRC....
BEGIN Configuration File: ./examples/bitrev
// Topology

topology = mesh;
k = 4;
n = 2;

// Routing
routing_function = dor;

// Flow control
num_vcs     = 4;
vc_buf_size = 4;
wait_for_tail_credit = 0;

// Router architecture
vc_allocator = islip;
sw_allocator = islip;
alloc_iters  = 1;

credit_delay   = 1;
routing_delay  = 1;
vc_alloc_delay = 1;
sw_alloc_delay = 1;

input_speedup     = 1;
output_speedup    = 1;
internal_speedup  = 1.0;

vc_busy_when_full = 0;

// Traffic
traffic = uniform;
packet_size = 1;

// Simulation
sim_type = throughput;

injection_rate = 0.29;

END Configuration File: ./examples/bitrev
===== Time: 1000 =====
Class 0:
Minimum packet latency = 7
Average packet latency = 210.443
Maximum packet latency = 620
Minimum network latency = 8
Average network latency = 147.342
Maximum network latency = 620
Slowest packet = 1294
Minimum flit latency = 8
Average flit latency = 147.342
Maximum flit latency = 620
Slowest flit = 1294
Minimum fragmentation = 0
Average fragmentation = 0
Maximum fragmentation = 0
Minimum injected packet rate = 0.159 (at node 13)
Average injected packet rate = 0.188062
Maximum injected packet rate = 0.233 (at node 4)
Minimum accepted packet rate = 0.14 (at node 14)
Average accepted packet rate = 0.158375
Maximum accepted packet rate = 0.173 (at node 15)
Minimum injected flit rate = 0.159 (at node 13)
Average injected flit rate = 0.188062
Maximum injected flit rate = 0.233 (at node 4)
Minimum accepted flit rate = 0.14 (at node 14)
Average accepted flit rate = 0.158375
Maximum accepted flit rate = 0.173 (at node 15)
Total number of injected packets = 3009
Total number of injected flits = 3009
Average injected packet length = 1
Total number of accepted packets = 2534
Total number of accepted flits = 2534
Average accepted packet length = 1
Total in-flight flits = 490 (0 measured)
===== Time: 2000 =====
Class 0:
Minimum packet latency = 7
Average packet latency = 426.149
Maximum packet latency = 1232
Minimum network latency = 8
Average network latency = 168.357
Maximum network latency = 898
Slowest packet = 2037
Minimum flit latency = 8
Average flit latency = 168.357
Maximum flit latency = 898
Slowest flit = 2615
Minimum fragmentation = 0
Average fragmentation = 0
Maximum fragmentation = 0
Minimum injected packet rate = 0.1375 (at node 2)
Average injected packet rate = 0.175625
Maximum injected packet rate = 0.2235 (at node 4)
Minimum accepted packet rate = 0.146 (at node 4)
Average accepted packet rate = 0.159781
Maximum accepted packet rate = 0.1685 (at node 15)
Minimum injected flit rate = 0.1375 (at node 2)
Average injected flit rate = 0.175625
Maximum injected flit rate = 0.2235 (at node 4)
Minimum accepted flit rate = 0.146 (at node 4)
Average accepted flit rate = 0.159781
Maximum accepted flit rate = 0.1685 (at node 15)
Total number of injected packets = 5620
Total number of injected flits = 5620
Average injected packet length = 1
Total number of accepted packets = 5113
Total number of accepted flits = 5113
Average accepted packet length = 1
Total in-flight flits = 522 (0 measured)
===== Time: 3000 =====
Class 0:
Minimum packet latency = 432
Average packet latency = 1069.11
Maximum packet latency = 1909
Minimum network latency = 48
Average network latency = 193.83
Maximum network latency = 806
Slowest packet = 5023
Minimum flit latency = 48
Average flit latency = 193.83
Maximum flit latency = 806
Slowest flit = 4262
Minimum fragmentation = 0
Average fragmentation = 0
Maximum fragmentation = 0
Minimum injected packet rate = 0.108 (at node 2)
Average injected packet rate = 0.161938
Maximum injected packet rate = 0.188 (at node 4)
Minimum accepted packet rate = 0.141 (at node 4)
Average accepted packet rate = 0.162188
Maximum accepted packet rate = 0.176 (at node 7)
Minimum injected flit rate = 0.108 (at node 2)
Average injected flit rate = 0.161938
Maximum injected flit rate = 0.188 (at node 4)
Minimum accepted flit rate = 0.141 (at node 4)
Average accepted flit rate = 0.162188
Maximum accepted flit rate = 0.176 (at node 7)
Total number of injected packets = 2591
Total number of injected flits = 2591
Average injected packet length = 1
Total number of accepted packets = 2595
Total number of accepted flits = 2595
Average accepted packet length = 1
Total in-flight flits = 516 (0 measured)
===== Time: 4000 =====
Class 0:
Minimum packet latency = 777
Average packet latency = 1527.11
Maximum packet latency = 2398
Minimum network latency = 43
Average network latency = 177.238
Maximum network latency = 648
Slowest packet = 8269
Minimum flit latency = 43
Average flit latency = 190.915
Maximum flit latency = 775
Slowest flit = 6438
Minimum fragmentation = 0
Average fragmentation = 0
Maximum fragmentation = 0
Minimum injected packet rate = 0.144 (at node 2)
Average injected packet rate = 0.168937
Maximum injected packet rate = 0.235 (at node 0)
Minimum accepted packet rate = 0.145 (at node 4)
Average accepted packet rate = 0.167813
Maximum accepted packet rate = 0.196 (at node 7)
Minimum injected flit rate = 0.144 (at node 2)
Average injected flit rate = 0.168937
Maximum injected flit rate = 0.235 (at node 0)
Minimum accepted flit rate = 0.145 (at node 4)
Average accepted flit rate = 0.167813
Maximum accepted flit rate = 0.196 (at node 7)
Total number of injected packets = 2703
Total number of injected flits = 2703
Average injected packet length = 1
Total number of accepted packets = 2685
Total number of accepted flits = 2685
Average accepted packet length = 1
Total in-flight flits = 532 (532 measured)
===== Time: 5000 =====
Class 0:
Minimum packet latency = 777
Average packet latency = 1740.89
Maximum packet latency = 2888
Minimum network latency = 43
Average network latency = 185.878
Maximum network latency = 756
Slowest packet = 8269
Minimum flit latency = 43
Average flit latency = 192.048
Maximum flit latency = 775
Slowest flit = 6438
Minimum fragmentation = 0
Average fragmentation = 0
Maximum fragmentation = 0
Minimum injected packet rate = 0.127 (at node 6)
Average injected packet rate = 0.16175
Maximum injected packet rate = 0.202 (at node 4)
Minimum accepted packet rate = 0.144 (at node 4)
Average accepted packet rate = 0.163406
Maximum accepted packet rate = 0.185 (at node 7)
Minimum injected flit rate = 0.127 (at node 6)
Average injected flit rate = 0.16175
Maximum injected flit rate = 0.202 (at node 4)
Minimum accepted flit rate = 0.144 (at node 4)
Average accepted flit rate = 0.163406
Maximum accepted flit rate = 0.185 (at node 7)
Total number of injected packets = 5176
Total number of injected flits = 5176
Average injected packet length = 1
Total number of accepted packets = 5229
Total number of accepted flits = 5229
Average accepted packet length = 1
Total in-flight flits = 465 (465 measured)
===== Time: 6000 =====
Class 0:
Minimum packet latency = 777
Average packet latency = 1965.38
Maximum packet latency = 3545
Minimum network latency = 43
Average network latency = 185.144
Maximum network latency = 840
Slowest packet = 8269
Minimum flit latency = 43
Average flit latency = 189.32
Maximum flit latency = 840
Slowest flit = 12501
Minimum fragmentation = 0
Average fragmentation = 0
Maximum fragmentation = 0
Minimum injected packet rate = 0.127333 (at node 2)
Average injected packet rate = 0.162729
Maximum injected packet rate = 0.201 (at node 0)
Minimum accepted packet rate = 0.148 (at node 4)
Average accepted packet rate = 0.162854
Maximum accepted packet rate = 0.176667 (at node 7)
Minimum injected flit rate = 0.127333 (at node 2)
Average injected flit rate = 0.162729
Maximum injected flit rate = 0.201 (at node 0)
Minimum accepted flit rate = 0.148 (at node 4)
Average accepted flit rate = 0.162854
Maximum accepted flit rate = 0.176667 (at node 7)
Total number of injected packets = 7811
Total number of injected flits = 7811
Average injected packet length = 1
Total number of accepted packets = 7817
Total number of accepted flits = 7817
Average accepted packet length = 1
Total in-flight flits = 512 (512 measured)
Draining remaining packets ...
Class 0:
Remaining flits: 14099 14343 14527 14539 14548 14570 14591 14655 14804 14848 [...] (495 flits)
Measured flits: 14099 14343 14527 14539 14548 14570 14591 14655 14804 14848 [...] (495 flits)
Class 0:
Remaining flits: 14099 14343 14527 14539 14548 14570 14591 14655 14804 14848 [...] (466 flits)
Measured flits: 14099 14343 14527 14539 14548 14570 14591 14655 14804 14848 [...] (466 flits)
Class 0:
Remaining flits: 14099 14343 14527 14539 14570 14591 14655 14804 14848 14869 [...] (437 flits)
Measured flits: 14099 14343 14527 14539 14570 14591 14655 14804 14848 14869 [...] (437 flits)
Class 0:
Remaining flits: 14099 14343 14527 14539 14570 14591 14655 14804 14848 14869 [...] (411 flits)
Measured flits: 14099 14343 14527 14539 14570 14591 14655 14804 14848 14869 [...] (411 flits)
Class 0:
Remaining flits: 14099 14343 14527 14539 14570 14591 14655 14804 14848 14869 [...] (382 flits)
Measured flits: 14099 14343 14527 14539 14570 14591 14655 14804 14848 14869 [...] (382 flits)
Class 0:
Remaining flits: 14343 14527 14539 14570 14591 14655 14804 14848 14915 14931 [...] (357 flits)
Measured flits: 14343 14527 14539 14570 14591 14655 14804 14848 14915 14931 [...] (357 flits)
Class 0:
Remaining flits: 14343 14527 14539 14570 14591 14804 14848 14915 14931 14977 [...] (325 flits)
Measured flits: 14343 14527 14539 14570 14591 14804 14848 14915 14931 14977 [...] (325 flits)
Class 0:
Remaining flits: 14343 14527 14539 14570 14591 14804 14848 14915 14931 14977 [...] (302 flits)
Measured flits: 14343 14527 14539 14570 14591 14804 14848 14915 14931 14977 [...] (302 flits)
Class 0:
Remaining flits: 14343 14527 14539 14570 14804 14848 14915 14931 14977 15003 [...] (265 flits)
Measured flits: 14343 14527 14539 14570 14804 14848 14915 14931 14977 15003 [...] (265 flits)
Class 0:
Remaining flits: 14343 14527 14539 14570 14804 14848 14915 14977 15003 15009 [...] (240 flits)
Measured flits: 14343 14527 14539 14570 14804 14848 14915 14977 15003 15009 [...] (240 flits)
Class 0:
Remaining flits: 14343 14527 14539 14570 14804 14848 14915 14977 15003 15009 [...] (221 flits)
Measured flits: 14343 14527 14539 14570 14804 14848 14915 14977 15003 15009 [...] (221 flits)
Class 0:
Remaining flits: 14343 14527 14539 14570 14804 14848 14915 14977 15003 15009 [...] (200 flits)
Measured flits: 14343 14527 14539 14570 14804 14848 14915 14977 15003 15009 [...] (200 flits)
Class 0:
Remaining flits: 14343 14527 14539 14570 14804 14848 14915 14977 15003 15009 [...] (174 flits)
Measured flits: 14343 14527 14539 14570 14804 14848 14915 14977 15003 15009 [...] (174 flits)
Class 0:
Remaining flits: 14343 14527 14539 14570 14804 14848 14915 14977 15003 15009 [...] (155 flits)
Measured flits: 14343 14527 14539 14570 14804 14848 14915 14977 15003 15009 [...] (155 flits)
Class 0:
Remaining flits: 14343 14527 14570 14804 14848 14915 14977 15009 15058 15060 [...] (138 flits)
Measured flits: 14343 14527 14570 14804 14848 14915 14977 15009 15058 15060 [...] (138 flits)
Class 0:
Remaining flits: 14527 14570 14804 14848 14915 14977 15009 15058 15060 15080 [...] (122 flits)
Measured flits: 14527 14570 14804 14848 14915 14977 15009 15058 15060 15080 [...] (122 flits)
Class 0:
Remaining flits: 14527 14570 14804 14848 14915 14977 15009 15058 15060 15080 [...] (109 flits)
Measured flits: 14527 14570 14804 14848 14915 14977 15009 15058 15060 15080 [...] (109 flits)
Class 0:
Remaining flits: 14570 14804 14848 14915 14977 15058 15080 15503 15534 15540 [...] (93 flits)
Measured flits: 14570 14804 14848 14915 14977 15058 15080 15503 15534 15540 [...] (93 flits)
Class 0:
Remaining flits: 14804 14848 14915 14977 15058 15080 15503 15534 15554 15565 [...] (77 flits)
Measured flits: 14804 14848 14915 14977 15058 15080 15503 15534 15554 15565 [...] (77 flits)
Class 0:
Remaining flits: 14804 14848 14915 14977 15058 15080 15534 15554 15565 15574 [...] (63 flits)
Measured flits: 14804 14848 14915 14977 15058 15080 15534 15554 15565 15574 [...] (63 flits)
Class 0:
Remaining flits: 14848 14915 15080 15534 15554 15565 15574 15593 15596 15609 [...] (56 flits)
Measured flits: 14848 14915 15080 15534 15554 15565 15574 15593 15596 15609 [...] (56 flits)
Class 0:
Remaining flits: 14848 14915 15080 15534 15565 15574 15593 15596 15609 15647 [...] (49 flits)
Measured flits: 14848 14915 15080 15534 15565 15574 15593 15596 15609 15647 [...] (49 flits)
Class 0:
Remaining flits: 14915 15080 15534 15565 15574 15593 15596 15609 15647 15663 [...] (45 flits)
Measured flits: 14915 15080 15534 15565 15574 15593 15596 15609 15647 15663 [...] (45 flits)
Class 0:
Remaining flits: 14915 15080 15534 15565 15574 15593 15596 15609 15647 15687 [...] (41 flits)
Measured flits: 14915 15080 15534 15565 15574 15593 15596 15609 15647 15687 [...] (41 flits)
Class 0:
Remaining flits: 15080 15565 15574 15593 15596 15609 15647 15696 15698 15705 [...] (36 flits)
Measured flits: 15080 15565 15574 15593 15596 15609 15647 15696 15698 15705 [...] (36 flits)
Class 0:
Remaining flits: 15080 15565 15574 15596 15609 15647 15696 15698 15705 15787 [...] (35 flits)
Measured flits: 15080 15565 15574 15596 15609 15647 15696 15698 15705 15787 [...] (35 flits)
Class 0:
Remaining flits: 15080 15574 15596 15609 15647 15696 15698 15705 15787 15806 [...] (34 flits)
Measured flits: 15080 15574 15596 15609 15647 15696 15698 15705 15787 15806 [...] (34 flits)
Class 0:
Remaining flits: 15080 15574 15596 15609 15696 15698 15787 15806 15822 15858 [...] (32 flits)
Measured flits: 15080 15574 15596 15609 15696 15698 15787 15806 15822 15858 [...] (32 flits)
Class 0:
Remaining flits: 15080 15574 15596 15696 15698 15787 15806 15822 15858 15877 [...] (28 flits)
Measured flits: 15080 15574 15596 15696 15698 15787 15806 15822 15858 15877 [...] (28 flits)
Class 0:
Remaining flits: 15080 15574 15596 15696 15698 15787 15806 15822 15858 15877 [...] (28 flits)
Measured flits: 15080 15574 15596 15696 15698 15787 15806 15822 15858 15877 [...] (28 flits)
Class 0:
Remaining flits: 15080 15574 15596 15696 15698 15806 15822 15858 15877 15882 [...] (25 flits)
Measured flits: 15080 15574 15596 15696 15698 15806 15822 15858 15877 15882 [...] (25 flits)
Class 0:
Remaining flits: 15080 15574 15596 15696 15698 15806 15822 15858 15877 15882 [...] (25 flits)
Measured flits: 15080 15574 15596 15696 15698 15806 15822 15858 15877 15882 [...] (25 flits)
Class 0:
Remaining flits: 15574 15596 15696 15698 15806 15822 15858 15877 15882 15886 [...] (24 flits)
Measured flits: 15574 15596 15696 15698 15806 15822 15858 15877 15882 15886 [...] (24 flits)
Class 0:
Remaining flits: 15574 15698 15806 15822 15858 15877 15882 15886 15891 15900 [...] (22 flits)
Measured flits: 15574 15698 15806 15822 15858 15877 15882 15886 15891 15900 [...] (22 flits)
Class 0:
Remaining flits: 15698 15822 15858 15877 15882 15886 15891 15900 15926 15932 [...] (20 flits)
Measured flits: 15698 15822 15858 15877 15882 15886 15891 15900 15926 15932 [...] (20 flits)
Class 0:
Remaining flits: 15698 15822 15858 15882 15886 15891 15900 15926 15975 16003 [...] (18 flits)
Measured flits: 15698 15822 15858 15882 15886 15891 15900 15926 15975 16003 [...] (18 flits)
Class 0:
Remaining flits: 15698 15822 15858 15882 15886 15891 15900 15926 16003 16008 [...] (17 flits)
Measured flits: 15698 15822 15858 15882 15886 15891 15900 15926 16003 16008 [...] (17 flits)
Class 0:
Remaining flits: 15698 15822 15882 15886 15900 15926 16003 16008 16009 16026 [...] (14 flits)
Measured flits: 15698 15822 15882 15886 15900 15926 16003 16008 16009 16026 [...] (14 flits)
Class 0:
Remaining flits: 15698 15882 15886 15900 15926 16003 16008 16009 16026 16028 [...] (13 flits)
Measured flits: 15698 15882 15886 15900 15926 16003 16008 16009 16026 16028 [...] (13 flits)
Class 0:
Remaining flits: 15698 15886 15900 15926 16003 16008 16009 16026 16028 16030 [...] (12 flits)
Measured flits: 15698 15886 15900 15926 16003 16008 16009 16026 16028 16030 [...] (12 flits)
Class 0:
Remaining flits: 15698 15886 15900 15926 16003 16008 16009 16026 16028 16030 [...] (12 flits)
Measured flits: 15698 15886 15900 15926 16003 16008 16009 16026 16028 16030 [...] (12 flits)
Class 0:
Remaining flits: 15698 15886 15900 15926 16003 16008 16009 16026 16028 16030 [...] (12 flits)
Measured flits: 15698 15886 15900 15926 16003 16008 16009 16026 16028 16030 [...] (12 flits)
Class 0:
Remaining flits: 15698 15886 15900 15926 16003 16008 16009 16026 16028 16030 [...] (12 flits)
Measured flits: 15698 15886 15900 15926 16003 16008 16009 16026 16028 16030 [...] (12 flits)
Class 0:
Remaining flits: 15698 15886 15900 15926 16003 16008 16009 16026 16028 16030 [...] (12 flits)
Measured flits: 15698 15886 15900 15926 16003 16008 16009 16026 16028 16030 [...] (12 flits)
Class 0:
Remaining flits: 15698 15886 15900 15926 16003 16008 16009 16026 16028 16030 [...] (12 flits)
Measured flits: 15698 15886 15900 15926 16003 16008 16009 16026 16028 16030 [...] (12 flits)
Class 0:
Remaining flits: 15698 15886 15900 15926 16003 16008 16009 16026 16028 16030 [...] (12 flits)
Measured flits: 15698 15886 15900 15926 16003 16008 16009 16026 16028 16030 [...] (12 flits)
Class 0:
Remaining flits: 15698 15886 15900 15926 16003 16008 16009 16026 16028 16030 [...] (12 flits)
Measured flits: 15698 15886 15900 15926 16003 16008 16009 16026 16028 16030 [...] (12 flits)
Class 0:
Remaining flits: 15698 15886 15900 15926 16003 16008 16009 16026 16028 16030 [...] (12 flits)
Measured flits: 15698 15886 15900 15926 16003 16008 16009 16026 16028 16030 [...] (12 flits)
Class 0:
Remaining flits: 15698 15886 15900 15926 16003 16008 16009 16026 16028 16030 [...] (12 flits)
Measured flits: 15698 15886 15900 15926 16003 16008 16009 16026 16028 16030 [...] (12 flits)
Class 0:
Remaining flits: 15698 15886 15900 15926 16003 16008 16009 16026 16028 16030 [...] (12 flits)
Measured flits: 15698 15886 15900 15926 16003 16008 16009 16026 16028 16030 [...] (12 flits)
Class 0:
Remaining flits: 15698 15886 15900 15926 16003 16008 16009 16026 16028 16030 [...] (12 flits)
Measured flits: 15698 15886 15900 15926 16003 16008 16009 16026 16028 16030 [...] (12 flits)
Class 0:
Remaining flits: 15698 15886 15900 15926 16003 16008 16009 16026 16028 16030 [...] (12 flits)
Measured flits: 15698 15886 15900 15926 16003 16008 16009 16026 16028 16030 [...] (12 flits)
Class 0:
Remaining flits: 15698 15886 15900 15926 16003 16008 16009 16026 16028 16030 [...] (12 flits)
Measured flits: 15698 15886 15900 15926 16003 16008 16009 16026 16028 16030 [...] (12 flits)
Class 0:
Remaining flits: 15698 15886 15900 15926 16003 16008 16009 16026 16028 16030 [...] (12 flits)
Measured flits: 15698 15886 15900 15926 16003 16008 16009 16026 16028 16030 [...] (12 flits)
Class 0:
Remaining flits: 15698 15886 15900 15926 16003 16008 16009 16026 16028 16030 [...] (12 flits)
Measured flits: 15698 15886 15900 15926 16003 16008 16009 16026 16028 16030 [...] (12 flits)
Class 0:
Remaining flits: 15698 15886 15900 15926 16003 16008 16009 16026 16028 16030 [...] (12 flits)
Measured flits: 15698 15886 15900 15926 16003 16008 16009 16026 16028 16030 [...] (12 flits)
Class 0:
Remaining flits: 15698 15886 15900 15926 16003 16008 16009 16026 16028 16030 [...] (12 flits)
Measured flits: 15698 15886 15900 15926 16003 16008 16009 16026 16028 16030 [...] (12 flits)
Class 0:
Remaining flits: 15698 15886 15900 15926 16003 16008 16009 16026 16028 16030 [...] (12 flits)
Measured flits: 15698 15886 15900 15926 16003 16008 16009 16026 16028 16030 [...] (12 flits)
Class 0:
Remaining flits: 15698 15886 15900 15926 16003 16008 16009 16026 16028 16030 [...] (12 flits)
Measured flits: 15698 15886 15900 15926 16003 16008 16009 16026 16028 16030 [...] (12 flits)
Class 0:
Remaining flits: 15698 15886 15900 15926 16003 16008 16009 16026 16028 16030 [...] (12 flits)
Measured flits: 15698 15886 15900 15926 16003 16008 16009 16026 16028 16030 [...] (12 flits)
Class 0:
Remaining flits: 15698 15886 15900 15926 16003 16008 16009 16026 16028 16030 [...] (12 flits)
Measured flits: 15698 15886 15900 15926 16003 16008 16009 16026 16028 16030 [...] (12 flits)
Class 0:
Remaining flits: 15698 15886 15900 15926 16003 16008 16009 16026 16028 16030 [...] (12 flits)
Measured flits: 15698 15886 15900 15926 16003 16008 16009 16026 16028 16030 [...] (12 flits)
Class 0:
Remaining flits: 15698 15886 15900 15926 16003 16008 16009 16026 16028 16030 [...] (12 flits)
Measured flits: 15698 15886 15900 15926 16003 16008 16009 16026 16028 16030 [...] (12 flits)
Class 0:
Remaining flits: 15698 15886 15900 15926 16003 16008 16009 16026 16028 16030 [...] (12 flits)
Measured flits: 15698 15886 15900 15926 16003 16008 16009 16026 16028 16030 [...] (12 flits)
Class 0:
Remaining flits: 15698 15886 15900 15926 16003 16008 16009 16026 16028 16030 [...] (12 flits)
Measured flits: 15698 15886 15900 15926 16003 16008 16009 16026 16028 16030 [...] (12 flits)
Class 0:
Remaining flits: 15698 15886 15900 15926 16003 16008 16009 16026 16028 16030 [...] (12 flits)
Measured flits: 15698 15886 15900 15926 16003 16008 16009 16026 16028 16030 [...] (12 flits)
Class 0:
Remaining flits: 15698 15886 15900 15926 16003 16008 16009 16026 16028 16030 [...] (12 flits)
Measured flits: 15698 15886 15900 15926 16003 16008 16009 16026 16028 16030 [...] (12 flits)
Class 0:
Remaining flits: 15698 15886 15900 15926 16003 16008 16009 16026 16028 16030 [...] (12 flits)
Measured flits: 15698 15886 15900 15926 16003 16008 16009 16026 16028 16030 [...] (12 flits)
Class 0:
Remaining flits: 15698 15886 15900 15926 16003 16008 16009 16026 16028 16030 [...] (12 flits)
Measured flits: 15698 15886 15900 15926 16003 16008 16009 16026 16028 16030 [...] (12 flits)
Class 0:
Remaining flits: 15698 15886 15900 15926 16003 16008 16009 16026 16028 16030 [...] (12 flits)
Measured flits: 15698 15886 15900 15926 16003 16008 16009 16026 16028 16030 [...] (12 flits)
Class 0:
Remaining flits: 15698 15886 15900 15926 16003 16008 16009 16026 16028 16030 [...] (12 flits)
Measured flits: 15698 15886 15900 15926 16003 16008 16009 16026 16028 16030 [...] (12 flits)
Class 0:
Remaining flits: 15698 15886 15900 15926 16003 16008 16009 16026 16028 16030 [...] (12 flits)
Measured flits: 15698 15886 15900 15926 16003 16008 16009 16026 16028 16030 [...] (12 flits)
Class 0:
Remaining flits: 15698 15886 15900 15926 16003 16008 16009 16026 16028 16030 [...] (12 flits)
Measured flits: 15698 15886 15900 15926 16003 16008 16009 16026 16028 16030 [...] (12 flits)
Class 0:
Remaining flits: 15698 15886 15900 15926 16003 16008 16009 16026 16028 16030 [...] (12 flits)
Measured flits: 15698 15886 15900 15926 16003 16008 16009 16026 16028 16030 [...] (12 flits)
Class 0:
Remaining flits: 15698 15886 15900 15926 16003 16008 16009 16026 16028 16030 [...] (12 flits)
Measured flits: 15698 15886 15900 15926 16003 16008 16009 16026 16028 16030 [...] (12 flits)
Class 0:
Remaining flits: 15698 15886 15900 15926 16003 16008 16009 16026 16028 16030 [...] (12 flits)
Measured flits: 15698 15886 15900 15926 16003 16008 16009 16026 16028 16030 [...] (12 flits)
Class 0:
Remaining flits: 15698 15886 15900 15926 16003 16008 16009 16026 16028 16030 [...] (12 flits)
Measured flits: 15698 15886 15900 15926 16003 16008 16009 16026 16028 16030 [...] (12 flits)
Class 0:
Remaining flits: 15698 15886 15900 15926 16003 16008 16009 16026 16028 16030 [...] (12 flits)
Measured flits: 15698 15886 15900 15926 16003 16008 16009 16026 16028 16030 [...] (12 flits)
Class 0:
Remaining flits: 15698 15886 15900 15926 16003 16008 16009 16026 16028 16030 [...] (12 flits)
Measured flits: 15698 15886 15900 15926 16003 16008 16009 16026 16028 16030 [...] (12 flits)
Class 0:
Remaining flits: 15698 15886 15900 15926 16003 16008 16009 16026 16028 16030 [...] (12 flits)
Measured flits: 15698 15886 15900 15926 16003 16008 16009 16026 16028 16030 [...] (12 flits)
Class 0:
Remaining flits: 15698 15886 15900 15926 16003 16008 16009 16026 16028 16030 [...] (12 flits)
Measured flits: 15698 15886 15900 15926 16003 16008 16009 16026 16028 16030 [...] (12 flits)
Class 0:
Remaining flits: 15698 15886 15900 15926 16003 16008 16009 16026 16028 16030 [...] (12 flits)
Measured flits: 15698 15886 15900 15926 16003 16008 16009 16026 16028 16030 [...] (12 flits)
Class 0:
Remaining flits: 15698 15886 15900 15926 16003 16008 16009 16026 16028 16030 [...] (12 flits)
Measured flits: 15698 15886 15900 15926 16003 16008 16009 16026 16028 16030 [...] (12 flits)
Class 0:
Remaining flits: 15698 15886 15900 15926 16003 16008 16009 16026 16028 16030 [...] (12 flits)
Measured flits: 15698 15886 15900 15926 16003 16008 16009 16026 16028 16030 [...] (12 flits)
Class 0:
Remaining flits: 15698 15886 15900 15926 16003 16008 16009 16026 16028 16030 [...] (12 flits)
Measured flits: 15698 15886 15900 15926 16003 16008 16009 16026 16028 16030 [...] (12 flits)
Class 0:
Remaining flits: 15698 15886 15900 15926 16003 16008 16009 16026 16028 16030 [...] (12 flits)
Measured flits: 15698 15886 15900 15926 16003 16008 16009 16026 16028 16030 [...] (12 flits)
Class 0:
Remaining flits: 15698 15886 15900 15926 16003 16008 16009 16026 16028 16030 [...] (12 flits)
Measured flits: 15698 15886 15900 15926 16003 16008 16009 16026 16028 16030 [...] (12 flits)
Class 0:
Remaining flits: 15698 15886 15900 15926 16003 16008 16009 16026 16028 16030 [...] (12 flits)
Measured flits: 15698 15886 15900 15926 16003 16008 16009 16026 16028 16030 [...] (12 flits)
Class 0:
Remaining flits: 15698 15886 15900 15926 16003 16008 16009 16026 16028 16030 [...] (12 flits)
Measured flits: 15698 15886 15900 15926 16003 16008 16009 16026 16028 16030 [...] (12 flits)
Class 0:
Remaining flits: 15698 15886 15900 15926 16003 16008 16009 16026 16028 16030 [...] (12 flits)
Measured flits: 15698 15886 15900 15926 16003 16008 16009 16026 16028 16030 [...] (12 flits)
Class 0:
Remaining flits: 15698 15886 15900 15926 16003 16008 16009 16026 16028 16030 [...] (12 flits)
Measured flits: 15698 15886 15900 15926 16003 16008 16009 16026 16028 16030 [...] (12 flits)
Class 0:
Remaining flits: 15698 15886 15900 15926 16003 16008 16009 16026 16028 16030 [...] (12 flits)
Measured flits: 15698 15886 15900 15926 16003 16008 16009 16026 16028 16030 [...] (12 flits)
Class 0:
Remaining flits: 15698 15886 15900 15926 16003 16008 16009 16026 16028 16030 [...] (12 flits)
Measured flits: 15698 15886 15900 15926 16003 16008 16009 16026 16028 16030 [...] (12 flits)
Class 0:
Remaining flits: 15698 15886 15900 15926 16003 16008 16009 16026 16028 16030 [...] (12 flits)
Measured flits: 15698 15886 15900 15926 16003 16008 16009 16026 16028 16030 [...] (12 flits)
Class 0:
Remaining flits: 15698 15886 15900 15926 16003 16008 16009 16026 16028 16030 [...] (12 flits)
Measured flits: 15698 15886 15900 15926 16003 16008 16009 16026 16028 16030 [...] (12 flits)
Class 0:
Remaining flits: 15698 15886 15900 15926 16003 16008 16009 16026 16028 16030 [...] (12 flits)
Measured flits: 15698 15886 15900 15926 16003 16008 16009 16026 16028 16030 [...] (12 flits)
Class 0:
Remaining flits: 15698 15886 15900 15926 16003 16008 16009 16026 16028 16030 [...] (12 flits)
Measured flits: 15698 15886 15900 15926 16003 16008 16009 16026 16028 16030 [...] (12 flits)
Class 0:
Remaining flits: 15698 15886 15900 15926 16003 16008 16009 16026 16028 16030 [...] (12 flits)
Measured flits: 15698 15886 15900 15926 16003 16008 16009 16026 16028 16030 [...] (12 flits)
Class 0:
Remaining flits: 15698 15886 15900 15926 16003 16008 16009 16026 16028 16030 [...] (12 flits)
Measured flits: 15698 15886 15900 15926 16003 16008 16009 16026 16028 16030 [...] (12 flits)
Class 0:
Remaining flits: 15698 15886 15900 15926 16003 16008 16009 16026 16028 16030 [...] (12 flits)
Measured flits: 15698 15886 15900 15926 16003 16008 16009 16026 16028 16030 [...] (12 flits)
Class 0:
Remaining flits: 15698 15886 15900 15926 16003 16008 16009 16026 16028 16030 [...] (12 flits)
Measured flits: 15698 15886 15900 15926 16003 16008 16009 16026 16028 16030 [...] (12 flits)
Time taken is 7000 cycles
====== Traffic class 0 ======

Total number of flits generated = 16037, changed lanes = 15793
Overall minimum packet latency = 777 (1 samples)
Overall average packet latency = 2011.55 (1 samples)
Overall maximum packet latency = 3762 (1 samples)
Overall minimum network latency = 43 (1 samples)
Overall average network latency = 187.242 (1 samples)
Overall maximum network latency = 840 (1 samples)
Overall minimum flit latency = 43 (1 samples)
Overall average flit latency = 191.036 (1 samples)
Overall maximum flit latency = 840 (1 samples)
Overall minimum fragmentation = 0 (1 samples)
Overall average fragmentation = 0 (1 samples)
Overall maximum fragmentation = 0 (1 samples)
Overall minimum injected packet rate = 0.127333 (1 samples)
Overall average injected packet rate = 0.162729 (1 samples)
Overall maximum injected packet rate = 0.201 (1 samples)
Overall minimum accepted packet rate = 0.148 (1 samples)
Overall average accepted packet rate = 0.162854 (1 samples)
Overall maximum accepted packet rate = 0.176667 (1 samples)
Overall minimum injected flit rate = 0.127333 (1 samples)
Overall average injected flit rate = 0.162729 (1 samples)
Overall maximum injected flit rate = 0.201 (1 samples)
Overall minimum accepted flit rate = 0.148 (1 samples)
Overall average accepted flit rate = 0.162854 (1 samples)
Overall maximum accepted flit rate = 0.176667 (1 samples)
Overall average injected packet size = 1 (1 samples)
Overall average accepted packet size = 1 (1 samples)
Overall average hops = 3.50301 (1 samples)
Overall throughput of the network (flits/cycle) = 5.34167
Overall throughput of the network (packets/cycle) = 5.34167
Total run time 7170.95
