make: Nothing to be done for 'all'.
Master: Running timer....
Master: Running SRC....
BEGIN Configuration File: ./examples/bitrev
// Topology

topology = mesh;
k = 4;
n = 2;

// Routing
routing_function = dor;

// Flow control
num_vcs     = 4;
vc_buf_size = 4;
wait_for_tail_credit = 0;

// Router architecture
vc_allocator = islip;
sw_allocator = islip;
alloc_iters  = 1;

credit_delay   = 1;
routing_delay  = 1;
vc_alloc_delay = 1;
sw_alloc_delay = 1;

input_speedup     = 1;
output_speedup    = 1;
internal_speedup  = 1.0;

vc_busy_when_full = 0;

// Traffic
traffic = uniform;
packet_size = 1;

// Simulation
sim_type = throughput;

injection_rate = 0.21;

END Configuration File: ./examples/bitrev
===== Time: 1000 =====
Class 0:
Minimum packet latency = 7
Average packet latency = 107.876
Maximum packet latency = 346
Minimum network latency = 8
Average network latency = 95.8789
Maximum network latency = 332
Slowest packet = 2004
Minimum flit latency = 8
Average flit latency = 95.8789
Maximum flit latency = 332
Slowest flit = 2004
Minimum fragmentation = 0
Average fragmentation = 0
Maximum fragmentation = 0
Minimum injected packet rate = 0.174 (at node 12)
Average injected packet rate = 0.188438
Maximum injected packet rate = 0.226 (at node 3)
Minimum accepted packet rate = 0.143 (at node 14)
Average accepted packet rate = 0.160562
Maximum accepted packet rate = 0.177 (at node 1)
Minimum injected flit rate = 0.174 (at node 12)
Average injected flit rate = 0.188438
Maximum injected flit rate = 0.226 (at node 3)
Minimum accepted flit rate = 0.143 (at node 14)
Average accepted flit rate = 0.160562
Maximum accepted flit rate = 0.177 (at node 1)
Total number of injected packets = 3015
Total number of injected flits = 3015
Average injected packet length = 1
Total number of accepted packets = 2569
Total number of accepted flits = 2569
Average accepted packet length = 1
Total in-flight flits = 454 (0 measured)
===== Time: 2000 =====
Class 0:
Minimum packet latency = 7
Average packet latency = 201.096
Maximum packet latency = 754
Minimum network latency = 8
Average network latency = 134.584
Maximum network latency = 669
Slowest packet = 2987
Minimum flit latency = 8
Average flit latency = 134.584
Maximum flit latency = 669
Slowest flit = 3827
Minimum fragmentation = 0
Average fragmentation = 0
Maximum fragmentation = 0
Minimum injected packet rate = 0.1595 (at node 2)
Average injected packet rate = 0.177281
Maximum injected packet rate = 0.2055 (at node 3)
Minimum accepted packet rate = 0.1505 (at node 4)
Average accepted packet rate = 0.161812
Maximum accepted packet rate = 0.1715 (at node 1)
Minimum injected flit rate = 0.1595 (at node 2)
Average injected flit rate = 0.177281
Maximum injected flit rate = 0.2055 (at node 3)
Minimum accepted flit rate = 0.1505 (at node 4)
Average accepted flit rate = 0.161812
Maximum accepted flit rate = 0.1715 (at node 1)
Total number of injected packets = 5673
Total number of injected flits = 5673
Average injected packet length = 1
Total number of accepted packets = 5178
Total number of accepted flits = 5178
Average accepted packet length = 1
Total in-flight flits = 507 (0 measured)
===== Time: 3000 =====
Class 0:
Minimum packet latency = 15
Average packet latency = 490.979
Maximum packet latency = 1154
Minimum network latency = 16
Average network latency = 189.275
Maximum network latency = 950
Slowest packet = 4104
Minimum flit latency = 16
Average flit latency = 189.275
Maximum flit latency = 950
Slowest flit = 5250
Minimum fragmentation = 0
Average fragmentation = 0
Maximum fragmentation = 0
Minimum injected packet rate = 0.119 (at node 0)
Average injected packet rate = 0.162375
Maximum injected packet rate = 0.236 (at node 3)
Minimum accepted packet rate = 0.146 (at node 4)
Average accepted packet rate = 0.163125
Maximum accepted packet rate = 0.182 (at node 0)
Minimum injected flit rate = 0.119 (at node 0)
Average injected flit rate = 0.162375
Maximum injected flit rate = 0.236 (at node 3)
Minimum accepted flit rate = 0.146 (at node 4)
Average accepted flit rate = 0.163125
Maximum accepted flit rate = 0.182 (at node 0)
Total number of injected packets = 2598
Total number of injected flits = 2598
Average injected packet length = 1
Total number of accepted packets = 2610
Total number of accepted flits = 2610
Average accepted packet length = 1
Total in-flight flits = 497 (0 measured)
===== Time: 4000 =====
Class 0:
Minimum packet latency = 48
Average packet latency = 726.924
Maximum packet latency = 1622
Minimum network latency = 46
Average network latency = 177.834
Maximum network latency = 758
Slowest packet = 8311
Minimum flit latency = 46
Average flit latency = 195.847
Maximum flit latency = 895
Slowest flit = 8076
Minimum fragmentation = 0
Average fragmentation = 0
Maximum fragmentation = 0
Minimum injected packet rate = 0.116 (at node 1)
Average injected packet rate = 0.161625
Maximum injected packet rate = 0.207 (at node 3)
Minimum accepted packet rate = 0.129 (at node 4)
Average accepted packet rate = 0.161
Maximum accepted packet rate = 0.199 (at node 7)
Minimum injected flit rate = 0.116 (at node 1)
Average injected flit rate = 0.161625
Maximum injected flit rate = 0.207 (at node 3)
Minimum accepted flit rate = 0.129 (at node 4)
Average accepted flit rate = 0.161
Maximum accepted flit rate = 0.199 (at node 7)
Total number of injected packets = 2586
Total number of injected flits = 2586
Average injected packet length = 1
Total number of accepted packets = 2576
Total number of accepted flits = 2576
Average accepted packet length = 1
Total in-flight flits = 504 (504 measured)
===== Time: 5000 =====
Class 0:
Minimum packet latency = 48
Average packet latency = 858.196
Maximum packet latency = 1954
Minimum network latency = 46
Average network latency = 188.436
Maximum network latency = 794
Slowest packet = 8311
Minimum flit latency = 46
Average flit latency = 196.473
Maximum flit latency = 895
Slowest flit = 8076
Minimum fragmentation = 0
Average fragmentation = 0
Maximum fragmentation = 0
Minimum injected packet rate = 0.126 (at node 1)
Average injected packet rate = 0.159312
Maximum injected packet rate = 0.1915 (at node 4)
Minimum accepted packet rate = 0.135 (at node 4)
Average accepted packet rate = 0.159938
Maximum accepted packet rate = 0.186 (at node 7)
Minimum injected flit rate = 0.126 (at node 1)
Average injected flit rate = 0.159312
Maximum injected flit rate = 0.1915 (at node 4)
Minimum accepted flit rate = 0.135 (at node 4)
Average accepted flit rate = 0.159938
Maximum accepted flit rate = 0.186 (at node 7)
Total number of injected packets = 5098
Total number of injected flits = 5098
Average injected packet length = 1
Total number of accepted packets = 5118
Total number of accepted flits = 5118
Average accepted packet length = 1
Total in-flight flits = 475 (475 measured)
===== Time: 6000 =====
Class 0:
Minimum packet latency = 48
Average packet latency = 971.04
Maximum packet latency = 2300
Minimum network latency = 42
Average network latency = 187.733
Maximum network latency = 897
Slowest packet = 8311
Minimum flit latency = 42
Average flit latency = 193.078
Maximum flit latency = 897
Slowest flit = 12119
Minimum fragmentation = 0
Average fragmentation = 0
Maximum fragmentation = 0
Minimum injected packet rate = 0.129 (at node 2)
Average injected packet rate = 0.162
Maximum injected packet rate = 0.197667 (at node 4)
Minimum accepted packet rate = 0.141667 (at node 4)
Average accepted packet rate = 0.161688
Maximum accepted packet rate = 0.178333 (at node 7)
Minimum injected flit rate = 0.129 (at node 2)
Average injected flit rate = 0.162
Maximum injected flit rate = 0.197667 (at node 4)
Minimum accepted flit rate = 0.141667 (at node 4)
Average accepted flit rate = 0.161688
Maximum accepted flit rate = 0.178333 (at node 7)
Total number of injected packets = 7776
Total number of injected flits = 7776
Average injected packet length = 1
Total number of accepted packets = 7761
Total number of accepted flits = 7761
Average accepted packet length = 1
Total in-flight flits = 511 (511 measured)
Draining remaining packets ...
Class 0:
Remaining flits: 14210 14289 14414 14504 14550 14571 14583 14667 14721 14764 [...] (490 flits)
Measured flits: 14210 14289 14414 14504 14550 14571 14583 14667 14721 14764 [...] (490 flits)
Class 0:
Remaining flits: 14210 14289 14414 14504 14571 14583 14667 14764 14808 14825 [...] (470 flits)
Measured flits: 14210 14289 14414 14504 14571 14583 14667 14764 14808 14825 [...] (470 flits)
Class 0:
Remaining flits: 14210 14289 14504 14571 14583 14667 14764 14808 14825 14872 [...] (441 flits)
Measured flits: 14210 14289 14504 14571 14583 14667 14764 14808 14825 14872 [...] (441 flits)
Class 0:
Remaining flits: 14210 14289 14504 14571 14583 14667 14764 14808 14825 14872 [...] (409 flits)
Measured flits: 14210 14289 14504 14571 14583 14667 14764 14808 14825 14872 [...] (409 flits)
Class 0:
Remaining flits: 14210 14504 14571 14583 14667 14764 14808 14825 14872 14878 [...] (385 flits)
Measured flits: 14210 14504 14571 14583 14667 14764 14808 14825 14872 14878 [...] (385 flits)
Class 0:
Remaining flits: 14504 14571 14583 14808 14825 14872 14878 14893 14900 15010 [...] (352 flits)
Measured flits: 14504 14571 14583 14808 14825 14872 14878 14893 14900 15010 [...] (352 flits)
Class 0:
Remaining flits: 14504 14571 14583 14808 14825 14872 14878 14893 14900 15010 [...] (322 flits)
Measured flits: 14504 14571 14583 14808 14825 14872 14878 14893 14900 15010 [...] (322 flits)
Class 0:
Remaining flits: 14504 14808 14825 14872 14878 14893 14900 15010 15028 15054 [...] (297 flits)
Measured flits: 14504 14808 14825 14872 14878 14893 14900 15010 15028 15054 [...] (297 flits)
Class 0:
Remaining flits: 14504 14808 14825 14872 14878 14893 14900 15010 15028 15054 [...] (282 flits)
Measured flits: 14504 14808 14825 14872 14878 14893 14900 15010 15028 15054 [...] (282 flits)
Class 0:
Remaining flits: 14504 14808 14825 14872 14893 14900 15010 15028 15054 15165 [...] (258 flits)
Measured flits: 14504 14808 14825 14872 14893 14900 15010 15028 15054 15165 [...] (258 flits)
Class 0:
Remaining flits: 14504 14808 14825 14872 14893 15010 15028 15054 15165 15266 [...] (232 flits)
Measured flits: 14504 14808 14825 14872 14893 15010 15028 15054 15165 15266 [...] (232 flits)
Class 0:
Remaining flits: 14504 14808 14825 14872 14893 15010 15028 15054 15165 15274 [...] (208 flits)
Measured flits: 14504 14808 14825 14872 14893 15010 15028 15054 15165 15274 [...] (208 flits)
Class 0:
Remaining flits: 14504 14808 14825 14872 14893 15028 15054 15165 15274 15286 [...] (189 flits)
Measured flits: 14504 14808 14825 14872 14893 15028 15054 15165 15274 15286 [...] (189 flits)
Class 0:
Remaining flits: 14504 14808 14825 14872 14893 15028 15054 15274 15286 15332 [...] (163 flits)
Measured flits: 14504 14808 14825 14872 14893 15028 15054 15274 15286 15332 [...] (163 flits)
Class 0:
Remaining flits: 14504 14808 14872 14893 15054 15274 15332 15344 15346 15384 [...] (146 flits)
Measured flits: 14504 14808 14872 14893 15054 15274 15332 15344 15346 15384 [...] (146 flits)
Class 0:
Remaining flits: 14504 14808 14893 15054 15332 15344 15346 15384 15386 15460 [...] (126 flits)
Measured flits: 14504 14808 14893 15054 15332 15344 15346 15384 15386 15460 [...] (126 flits)
Class 0:
Remaining flits: 14808 14893 15054 15332 15344 15346 15384 15386 15460 15473 [...] (106 flits)
Measured flits: 14808 14893 15054 15332 15344 15346 15384 15386 15460 15473 [...] (106 flits)
Class 0:
Remaining flits: 14808 14893 15054 15332 15344 15346 15384 15386 15460 15473 [...] (94 flits)
Measured flits: 14808 14893 15054 15332 15344 15346 15384 15386 15460 15473 [...] (94 flits)
Class 0:
Remaining flits: 14808 14893 15054 15332 15344 15346 15384 15386 15460 15473 [...] (90 flits)
Measured flits: 14808 14893 15054 15332 15344 15346 15384 15386 15460 15473 [...] (90 flits)
Class 0:
Remaining flits: 14808 14893 15054 15332 15344 15346 15384 15386 15460 15473 [...] (84 flits)
Measured flits: 14808 14893 15054 15332 15344 15346 15384 15386 15460 15473 [...] (84 flits)
Class 0:
Remaining flits: 14893 15054 15332 15344 15384 15386 15460 15509 15571 15578 [...] (74 flits)
Measured flits: 14893 15054 15332 15344 15384 15386 15460 15509 15571 15578 [...] (74 flits)
Class 0:
Remaining flits: 14893 15054 15332 15344 15384 15386 15460 15509 15571 15578 [...] (68 flits)
Measured flits: 14893 15054 15332 15344 15384 15386 15460 15509 15571 15578 [...] (68 flits)
Class 0:
Remaining flits: 15332 15344 15384 15386 15460 15509 15571 15578 15591 15593 [...] (63 flits)
Measured flits: 15332 15344 15384 15386 15460 15509 15571 15578 15591 15593 [...] (63 flits)
Class 0:
Remaining flits: 15332 15344 15384 15386 15460 15509 15571 15578 15591 15593 [...] (58 flits)
Measured flits: 15332 15344 15384 15386 15460 15509 15571 15578 15591 15593 [...] (58 flits)
Class 0:
Remaining flits: 15332 15344 15384 15386 15460 15509 15571 15578 15591 15593 [...] (53 flits)
Measured flits: 15332 15344 15384 15386 15460 15509 15571 15578 15591 15593 [...] (53 flits)
Class 0:
Remaining flits: 15344 15384 15386 15460 15509 15571 15578 15591 15593 15610 [...] (46 flits)
Measured flits: 15344 15384 15386 15460 15509 15571 15578 15591 15593 15610 [...] (46 flits)
Class 0:
Remaining flits: 15344 15384 15386 15460 15509 15571 15578 15591 15593 15610 [...] (42 flits)
Measured flits: 15344 15384 15386 15460 15509 15571 15578 15591 15593 15610 [...] (42 flits)
Class 0:
Remaining flits: 15344 15384 15386 15460 15509 15571 15578 15591 15593 15610 [...] (39 flits)
Measured flits: 15344 15384 15386 15460 15509 15571 15578 15591 15593 15610 [...] (39 flits)
Class 0:
Remaining flits: 15384 15386 15460 15509 15571 15578 15591 15593 15610 15617 [...] (36 flits)
Measured flits: 15384 15386 15460 15509 15571 15578 15591 15593 15610 15617 [...] (36 flits)
Class 0:
Remaining flits: 15384 15386 15460 15509 15571 15578 15591 15593 15610 15617 [...] (33 flits)
Measured flits: 15384 15386 15460 15509 15571 15578 15591 15593 15610 15617 [...] (33 flits)
Class 0:
Remaining flits: 15384 15386 15460 15578 15591 15593 15610 15617 15687 15754 [...] (30 flits)
Measured flits: 15384 15386 15460 15578 15591 15593 15610 15617 15687 15754 [...] (30 flits)
Class 0:
Remaining flits: 15384 15386 15578 15593 15610 15617 15687 15754 15794 15814 [...] (27 flits)
Measured flits: 15384 15386 15578 15593 15610 15617 15687 15754 15794 15814 [...] (27 flits)
Class 0:
Remaining flits: 15384 15578 15593 15610 15617 15687 15754 15794 15814 15827 [...] (26 flits)
Measured flits: 15384 15578 15593 15610 15617 15687 15754 15794 15814 15827 [...] (26 flits)
Class 0:
Remaining flits: 15578 15593 15610 15687 15754 15794 15814 15827 15882 15891 [...] (24 flits)
Measured flits: 15578 15593 15610 15687 15754 15794 15814 15827 15882 15891 [...] (24 flits)
Class 0:
Remaining flits: 15593 15687 15794 15814 15827 15882 15891 15905 15919 15930 [...] (21 flits)
Measured flits: 15593 15687 15794 15814 15827 15882 15891 15905 15919 15930 [...] (21 flits)
Class 0:
Remaining flits: 15593 15687 15794 15814 15827 15882 15891 15905 15919 15930 [...] (20 flits)
Measured flits: 15593 15687 15794 15814 15827 15882 15891 15905 15919 15930 [...] (20 flits)
Class 0:
Remaining flits: 15687 15794 15814 15827 15882 15905 15919 15930 15937 15943 [...] (18 flits)
Measured flits: 15687 15794 15814 15827 15882 15905 15919 15930 15937 15943 [...] (18 flits)
Class 0:
Remaining flits: 15687 15794 15814 15827 15882 15905 15919 15930 15953 15973 [...] (16 flits)
Measured flits: 15687 15794 15814 15827 15882 15905 15919 15930 15953 15973 [...] (16 flits)
Class 0:
Remaining flits: 15687 15794 15814 15827 15882 15905 15930 15953 15973 16010 [...] (14 flits)
Measured flits: 15687 15794 15814 15827 15882 15905 15930 15953 15973 16010 [...] (14 flits)
Class 0:
Remaining flits: 15794 15814 15827 15882 15905 15930 15953 15973 16010 16030 [...] (13 flits)
Measured flits: 15794 15814 15827 15882 15905 15930 15953 15973 16010 16030 [...] (13 flits)
Class 0:
Remaining flits: 15794 15827 15882 15905 15930 15973 16030 16052 16056 16059 (10 flits)
Measured flits: 15794 15827 15882 15905 15930 15973 16030 16052 16056 16059 (10 flits)
Class 0:
Remaining flits: 15827 15882 15905 15930 15973 16030 16052 16056 16059 (9 flits)
Measured flits: 15827 15882 15905 15930 15973 16030 16052 16056 16059 (9 flits)
Class 0:
Remaining flits: 15827 15882 15905 15930 15973 16030 16052 16056 16059 (9 flits)
Measured flits: 15827 15882 15905 15930 15973 16030 16052 16056 16059 (9 flits)
Class 0:
Remaining flits: 15930 15973 16030 16052 16056 16059 (6 flits)
Measured flits: 15930 15973 16030 16052 16056 16059 (6 flits)
Class 0:
Remaining flits: 15930 15973 16030 16052 16056 16059 (6 flits)
Measured flits: 15930 15973 16030 16052 16056 16059 (6 flits)
Class 0:
Remaining flits: 15930 15973 16030 16052 16056 16059 (6 flits)
Measured flits: 15930 15973 16030 16052 16056 16059 (6 flits)
Class 0:
Remaining flits: 15930 15973 16030 16052 16056 16059 (6 flits)
Measured flits: 15930 15973 16030 16052 16056 16059 (6 flits)
Class 0:
Remaining flits: 15930 15973 16030 16052 16056 16059 (6 flits)
Measured flits: 15930 15973 16030 16052 16056 16059 (6 flits)
Class 0:
Remaining flits: 15930 15973 16030 16052 16056 16059 (6 flits)
Measured flits: 15930 15973 16030 16052 16056 16059 (6 flits)
Class 0:
Remaining flits: 15930 15973 16030 16052 16056 16059 (6 flits)
Measured flits: 15930 15973 16030 16052 16056 16059 (6 flits)
Class 0:
Remaining flits: 15930 15973 16030 16052 16056 16059 (6 flits)
Measured flits: 15930 15973 16030 16052 16056 16059 (6 flits)
Class 0:
Remaining flits: 15930 15973 16030 16052 16056 16059 (6 flits)
Measured flits: 15930 15973 16030 16052 16056 16059 (6 flits)
Class 0:
Remaining flits: 15930 15973 16030 16052 16056 16059 (6 flits)
Measured flits: 15930 15973 16030 16052 16056 16059 (6 flits)
Class 0:
Remaining flits: 15930 15973 16030 16052 16056 16059 (6 flits)
Measured flits: 15930 15973 16030 16052 16056 16059 (6 flits)
Class 0:
Remaining flits: 15930 15973 16030 16052 16056 16059 (6 flits)
Measured flits: 15930 15973 16030 16052 16056 16059 (6 flits)
Class 0:
Remaining flits: 15930 15973 16030 16052 16056 16059 (6 flits)
Measured flits: 15930 15973 16030 16052 16056 16059 (6 flits)
Class 0:
Remaining flits: 15930 15973 16030 16052 16056 16059 (6 flits)
Measured flits: 15930 15973 16030 16052 16056 16059 (6 flits)
Class 0:
Remaining flits: 15930 15973 16030 16052 16056 16059 (6 flits)
Measured flits: 15930 15973 16030 16052 16056 16059 (6 flits)
Class 0:
Remaining flits: 15930 15973 16030 16052 16056 16059 (6 flits)
Measured flits: 15930 15973 16030 16052 16056 16059 (6 flits)
Class 0:
Remaining flits: 15930 15973 16030 16052 16056 16059 (6 flits)
Measured flits: 15930 15973 16030 16052 16056 16059 (6 flits)
Class 0:
Remaining flits: 15930 15973 16030 16052 16056 16059 (6 flits)
Measured flits: 15930 15973 16030 16052 16056 16059 (6 flits)
Class 0:
Remaining flits: 15930 15973 16030 16052 16056 16059 (6 flits)
Measured flits: 15930 15973 16030 16052 16056 16059 (6 flits)
Class 0:
Remaining flits: 15930 15973 16030 16052 16056 16059 (6 flits)
Measured flits: 15930 15973 16030 16052 16056 16059 (6 flits)
Class 0:
Remaining flits: 15930 15973 16030 16052 16056 16059 (6 flits)
Measured flits: 15930 15973 16030 16052 16056 16059 (6 flits)
Class 0:
Remaining flits: 15930 15973 16030 16052 16056 16059 (6 flits)
Measured flits: 15930 15973 16030 16052 16056 16059 (6 flits)
Class 0:
Remaining flits: 15930 15973 16030 16052 16056 16059 (6 flits)
Measured flits: 15930 15973 16030 16052 16056 16059 (6 flits)
Class 0:
Remaining flits: 15930 15973 16030 16052 16056 16059 (6 flits)
Measured flits: 15930 15973 16030 16052 16056 16059 (6 flits)
Class 0:
Remaining flits: 15930 15973 16030 16052 16056 16059 (6 flits)
Measured flits: 15930 15973 16030 16052 16056 16059 (6 flits)
Class 0:
Remaining flits: 15930 15973 16030 16052 16056 16059 (6 flits)
Measured flits: 15930 15973 16030 16052 16056 16059 (6 flits)
Class 0:
Remaining flits: 15930 15973 16030 16052 16056 16059 (6 flits)
Measured flits: 15930 15973 16030 16052 16056 16059 (6 flits)
Class 0:
Remaining flits: 15930 15973 16030 16052 16056 16059 (6 flits)
Measured flits: 15930 15973 16030 16052 16056 16059 (6 flits)
Class 0:
Remaining flits: 15930 15973 16030 16052 16056 16059 (6 flits)
Measured flits: 15930 15973 16030 16052 16056 16059 (6 flits)
Class 0:
Remaining flits: 15930 15973 16030 16052 16056 16059 (6 flits)
Measured flits: 15930 15973 16030 16052 16056 16059 (6 flits)
Class 0:
Remaining flits: 15930 15973 16030 16052 16056 16059 (6 flits)
Measured flits: 15930 15973 16030 16052 16056 16059 (6 flits)
Class 0:
Remaining flits: 15930 15973 16030 16052 16056 16059 (6 flits)
Measured flits: 15930 15973 16030 16052 16056 16059 (6 flits)
Class 0:
Remaining flits: 15930 15973 16030 16052 16056 16059 (6 flits)
Measured flits: 15930 15973 16030 16052 16056 16059 (6 flits)
Class 0:
Remaining flits: 15930 15973 16030 16052 16056 16059 (6 flits)
Measured flits: 15930 15973 16030 16052 16056 16059 (6 flits)
Class 0:
Remaining flits: 15930 15973 16030 16052 16056 16059 (6 flits)
Measured flits: 15930 15973 16030 16052 16056 16059 (6 flits)
Class 0:
Remaining flits: 15930 15973 16030 16052 16056 16059 (6 flits)
Measured flits: 15930 15973 16030 16052 16056 16059 (6 flits)
Class 0:
Remaining flits: 15930 15973 16030 16052 16056 16059 (6 flits)
Measured flits: 15930 15973 16030 16052 16056 16059 (6 flits)
Class 0:
Remaining flits: 15930 15973 16030 16052 16056 16059 (6 flits)
Measured flits: 15930 15973 16030 16052 16056 16059 (6 flits)
Class 0:
Remaining flits: 15930 15973 16030 16052 16056 16059 (6 flits)
Measured flits: 15930 15973 16030 16052 16056 16059 (6 flits)
Class 0:
Remaining flits: 15930 15973 16030 16052 16056 16059 (6 flits)
Measured flits: 15930 15973 16030 16052 16056 16059 (6 flits)
Class 0:
Remaining flits: 15930 15973 16030 16052 16056 16059 (6 flits)
Measured flits: 15930 15973 16030 16052 16056 16059 (6 flits)
Class 0:
Remaining flits: 15930 15973 16030 16052 16056 16059 (6 flits)
Measured flits: 15930 15973 16030 16052 16056 16059 (6 flits)
Class 0:
Remaining flits: 15930 15973 16030 16052 16056 16059 (6 flits)
Measured flits: 15930 15973 16030 16052 16056 16059 (6 flits)
Class 0:
Remaining flits: 15930 15973 16030 16052 16056 16059 (6 flits)
Measured flits: 15930 15973 16030 16052 16056 16059 (6 flits)
Class 0:
Remaining flits: 15930 15973 16030 16052 16056 16059 (6 flits)
Measured flits: 15930 15973 16030 16052 16056 16059 (6 flits)
Class 0:
Remaining flits: 15930 15973 16030 16052 16056 16059 (6 flits)
Measured flits: 15930 15973 16030 16052 16056 16059 (6 flits)
Class 0:
Remaining flits: 15930 15973 16030 16052 16056 16059 (6 flits)
Measured flits: 15930 15973 16030 16052 16056 16059 (6 flits)
Class 0:
Remaining flits: 15930 15973 16030 16052 16056 16059 (6 flits)
Measured flits: 15930 15973 16030 16052 16056 16059 (6 flits)
Class 0:
Remaining flits: 15930 15973 16030 16052 16056 16059 (6 flits)
Measured flits: 15930 15973 16030 16052 16056 16059 (6 flits)
Class 0:
Remaining flits: 15930 15973 16030 16052 16056 16059 (6 flits)
Measured flits: 15930 15973 16030 16052 16056 16059 (6 flits)
Class 0:
Remaining flits: 15930 15973 16030 16052 16056 16059 (6 flits)
Measured flits: 15930 15973 16030 16052 16056 16059 (6 flits)
Class 0:
Remaining flits: 15930 15973 16030 16052 16056 16059 (6 flits)
Measured flits: 15930 15973 16030 16052 16056 16059 (6 flits)
Class 0:
Remaining flits: 15930 15973 16030 16052 16056 16059 (6 flits)
Measured flits: 15930 15973 16030 16052 16056 16059 (6 flits)
Class 0:
Remaining flits: 15930 15973 16030 16052 16056 16059 (6 flits)
Measured flits: 15930 15973 16030 16052 16056 16059 (6 flits)
Class 0:
Remaining flits: 15930 15973 16030 16052 16056 16059 (6 flits)
Measured flits: 15930 15973 16030 16052 16056 16059 (6 flits)
Class 0:
Remaining flits: 15930 15973 16030 16052 16056 16059 (6 flits)
Measured flits: 15930 15973 16030 16052 16056 16059 (6 flits)
Class 0:
Remaining flits: 15930 15973 16030 16052 16056 16059 (6 flits)
Measured flits: 15930 15973 16030 16052 16056 16059 (6 flits)
Class 0:
Remaining flits: 15930 15973 16030 16052 16056 16059 (6 flits)
Measured flits: 15930 15973 16030 16052 16056 16059 (6 flits)
Time taken is 7000 cycles
====== Traffic class 0 ======

Total number of flits generated = 16060, changed lanes = 15835
Overall minimum packet latency = 48 (1 samples)
Overall average packet latency = 996.465 (1 samples)
Overall maximum packet latency = 2389 (1 samples)
Overall minimum network latency = 42 (1 samples)
Overall average network latency = 191.228 (1 samples)
Overall maximum network latency = 897 (1 samples)
Overall minimum flit latency = 42 (1 samples)
Overall average flit latency = 196.036 (1 samples)
Overall maximum flit latency = 897 (1 samples)
Overall minimum fragmentation = 0 (1 samples)
Overall average fragmentation = 0 (1 samples)
Overall maximum fragmentation = 0 (1 samples)
Overall minimum injected packet rate = 0.129 (1 samples)
Overall average injected packet rate = 0.162 (1 samples)
Overall maximum injected packet rate = 0.197667 (1 samples)
Overall minimum accepted packet rate = 0.141667 (1 samples)
Overall average accepted packet rate = 0.161688 (1 samples)
Overall maximum accepted packet rate = 0.178333 (1 samples)
Overall minimum injected flit rate = 0.129 (1 samples)
Overall average injected flit rate = 0.162 (1 samples)
Overall maximum injected flit rate = 0.197667 (1 samples)
Overall minimum accepted flit rate = 0.141667 (1 samples)
Overall average accepted flit rate = 0.161688 (1 samples)
Overall maximum accepted flit rate = 0.178333 (1 samples)
Overall average injected packet size = 1 (1 samples)
Overall average accepted packet size = 1 (1 samples)
Overall average hops = 3.50135 (1 samples)
Overall throughput of the network (flits/cycle) = 5.35133
Overall throughput of the network (packets/cycle) = 5.35133
Total run time 6418.82
