make: Nothing to be done for 'all'.
Master: Running timer....
Master: Running SRC....
BEGIN Configuration File: ./examples/bitrev
// Topology

topology = mesh;
k = 4;
n = 2;

// Routing
routing_function = dor;

// Flow control
num_vcs     = 4;
vc_buf_size = 4;
wait_for_tail_credit = 0;

// Router architecture
vc_allocator = islip;
sw_allocator = islip;
alloc_iters  = 1;

credit_delay   = 1;
routing_delay  = 1;
vc_alloc_delay = 1;
sw_alloc_delay = 1;

input_speedup     = 1;
output_speedup    = 1;
internal_speedup  = 1.0;

vc_busy_when_full = 0;

// Traffic
traffic = uniform;
packet_size = 1;

// Simulation
sim_type = throughput;

injection_rate = 0.05;

END Configuration File: ./examples/bitrev
===== Time: 1000 =====
Class 0:
Minimum packet latency = 8
Average packet latency = 34.605
Maximum packet latency = 115
Minimum network latency = 9
Average network latency = 35.605
Maximum network latency = 116
Slowest packet = 559
Minimum flit latency = 9
Average flit latency = 35.605
Maximum flit latency = 116
Slowest flit = 559
Minimum fragmentation = 0
Average fragmentation = 0
Maximum fragmentation = 0
Minimum injected packet rate = 0.041 (at node 5)
Average injected packet rate = 0.048875
Maximum injected packet rate = 0.054 (at node 1)
Minimum accepted packet rate = 0.034 (at node 6)
Average accepted packet rate = 0.0473125
Maximum accepted packet rate = 0.057 (at node 5)
Minimum injected flit rate = 0.041 (at node 5)
Average injected flit rate = 0.048875
Maximum injected flit rate = 0.054 (at node 1)
Minimum accepted flit rate = 0.034 (at node 6)
Average accepted flit rate = 0.0473125
Maximum accepted flit rate = 0.057 (at node 5)
Total number of injected packets = 782
Total number of injected flits = 782
Average injected packet length = 1
Total number of accepted packets = 757
Total number of accepted flits = 757
Average accepted packet length = 1
Total in-flight flits = 25 (0 measured)
===== Time: 2000 =====
Class 0:
Minimum packet latency = 7
Average packet latency = 34.6109
Maximum packet latency = 115
Minimum network latency = 8
Average network latency = 35.6109
Maximum network latency = 116
Slowest packet = 559
Minimum flit latency = 8
Average flit latency = 35.6109
Maximum flit latency = 116
Slowest flit = 559
Minimum fragmentation = 0
Average fragmentation = 0
Maximum fragmentation = 0
Minimum injected packet rate = 0.0395 (at node 8)
Average injected packet rate = 0.049125
Maximum injected packet rate = 0.057 (at node 12)
Minimum accepted packet rate = 0.0415 (at node 11)
Average accepted packet rate = 0.0483437
Maximum accepted packet rate = 0.052 (at node 1)
Minimum injected flit rate = 0.0395 (at node 8)
Average injected flit rate = 0.049125
Maximum injected flit rate = 0.057 (at node 12)
Minimum accepted flit rate = 0.0415 (at node 11)
Average accepted flit rate = 0.0483437
Maximum accepted flit rate = 0.052 (at node 1)
Total number of injected packets = 1572
Total number of injected flits = 1572
Average injected packet length = 1
Total number of accepted packets = 1547
Total number of accepted flits = 1547
Average accepted packet length = 1
Total in-flight flits = 25 (0 measured)
===== Time: 3000 =====
Class 0:
Minimum packet latency = 7
Average packet latency = 35.6455
Maximum packet latency = 110
Minimum network latency = 8
Average network latency = 36.6455
Maximum network latency = 111
Slowest packet = 2164
Minimum flit latency = 8
Average flit latency = 36.6455
Maximum flit latency = 111
Slowest flit = 2164
Minimum fragmentation = 0
Average fragmentation = 0
Maximum fragmentation = 0
Minimum injected packet rate = 0.045 (at node 4)
Average injected packet rate = 0.0518125
Maximum injected packet rate = 0.059 (at node 1)
Minimum accepted packet rate = 0.037 (at node 5)
Average accepted packet rate = 0.051125
Maximum accepted packet rate = 0.062 (at node 12)
Minimum injected flit rate = 0.045 (at node 4)
Average injected flit rate = 0.0518125
Maximum injected flit rate = 0.059 (at node 1)
Minimum accepted flit rate = 0.037 (at node 5)
Average accepted flit rate = 0.051125
Maximum accepted flit rate = 0.062 (at node 12)
Total number of injected packets = 829
Total number of injected flits = 829
Average injected packet length = 1
Total number of accepted packets = 818
Total number of accepted flits = 818
Average accepted packet length = 1
Total in-flight flits = 36 (0 measured)
===== Time: 4000 =====
Class 0:
Minimum packet latency = 7
Average packet latency = 35.3596
Maximum packet latency = 130
Minimum network latency = 8
Average network latency = 36.3596
Maximum network latency = 131
Slowest packet = 2820
Minimum flit latency = 8
Average flit latency = 36.978
Maximum flit latency = 131
Slowest flit = 2820
Minimum fragmentation = 0
Average fragmentation = 0
Maximum fragmentation = 0
Minimum injected packet rate = 0.035 (at node 0)
Average injected packet rate = 0.0480625
Maximum injected packet rate = 0.057 (at node 9)
Minimum accepted packet rate = 0.034 (at node 2)
Average accepted packet rate = 0.0483125
Maximum accepted packet rate = 0.062 (at node 15)
Minimum injected flit rate = 0.035 (at node 0)
Average injected flit rate = 0.0480625
Maximum injected flit rate = 0.057 (at node 9)
Minimum accepted flit rate = 0.034 (at node 2)
Average accepted flit rate = 0.0483125
Maximum accepted flit rate = 0.062 (at node 15)
Total number of injected packets = 769
Total number of injected flits = 769
Average injected packet length = 1
Total number of accepted packets = 773
Total number of accepted flits = 773
Average accepted packet length = 1
Total in-flight flits = 32 (32 measured)
===== Time: 5000 =====
Class 0:
Minimum packet latency = 7
Average packet latency = 35.5017
Maximum packet latency = 161
Minimum network latency = 8
Average network latency = 36.5017
Maximum network latency = 162
Slowest packet = 3466
Minimum flit latency = 8
Average flit latency = 36.809
Maximum flit latency = 162
Slowest flit = 3466
Minimum fragmentation = 0
Average fragmentation = 0
Maximum fragmentation = 0
Minimum injected packet rate = 0.0365 (at node 0)
Average injected packet rate = 0.0476875
Maximum injected packet rate = 0.0575 (at node 9)
Minimum accepted packet rate = 0.0365 (at node 4)
Average accepted packet rate = 0.0480937
Maximum accepted packet rate = 0.058 (at node 8)
Minimum injected flit rate = 0.0365 (at node 0)
Average injected flit rate = 0.0476875
Maximum injected flit rate = 0.0575 (at node 9)
Minimum accepted flit rate = 0.0365 (at node 4)
Average accepted flit rate = 0.0480937
Maximum accepted flit rate = 0.058 (at node 8)
Total number of injected packets = 1526
Total number of injected flits = 1526
Average injected packet length = 1
Total number of accepted packets = 1539
Total number of accepted flits = 1539
Average accepted packet length = 1
Total in-flight flits = 23 (23 measured)
===== Time: 6000 =====
Class 0:
Minimum packet latency = 7
Average packet latency = 35.664
Maximum packet latency = 163
Minimum network latency = 8
Average network latency = 36.664
Maximum network latency = 164
Slowest packet = 4424
Minimum flit latency = 8
Average flit latency = 36.8652
Maximum flit latency = 164
Slowest flit = 4424
Minimum fragmentation = 0
Average fragmentation = 0
Maximum fragmentation = 0
Minimum injected packet rate = 0.041 (at node 0)
Average injected packet rate = 0.0481667
Maximum injected packet rate = 0.057 (at node 15)
Minimum accepted packet rate = 0.0363333 (at node 4)
Average accepted packet rate = 0.048375
Maximum accepted packet rate = 0.0553333 (at node 8)
Minimum injected flit rate = 0.041 (at node 0)
Average injected flit rate = 0.0481667
Maximum injected flit rate = 0.057 (at node 15)
Minimum accepted flit rate = 0.0363333 (at node 4)
Average accepted flit rate = 0.048375
Maximum accepted flit rate = 0.0553333 (at node 8)
Total number of injected packets = 2312
Total number of injected flits = 2312
Average injected packet length = 1
Total number of accepted packets = 2322
Total number of accepted flits = 2322
Average accepted packet length = 1
Total in-flight flits = 26 (26 measured)
===== Time: 7000 =====
Class 0:
Minimum packet latency = 7
Average packet latency = 35.6008
Maximum packet latency = 163
Minimum network latency = 8
Average network latency = 36.6008
Maximum network latency = 164
Slowest packet = 4424
Minimum flit latency = 8
Average flit latency = 36.7503
Maximum flit latency = 164
Slowest flit = 4424
Minimum fragmentation = 0
Average fragmentation = 0
Maximum fragmentation = 0
Minimum injected packet rate = 0.04275 (at node 0)
Average injected packet rate = 0.0488906
Maximum injected packet rate = 0.054 (at node 15)
Minimum accepted packet rate = 0.03875 (at node 4)
Average accepted packet rate = 0.0490625
Maximum accepted packet rate = 0.05575 (at node 11)
Minimum injected flit rate = 0.04275 (at node 0)
Average injected flit rate = 0.0488906
Maximum injected flit rate = 0.054 (at node 15)
Minimum accepted flit rate = 0.03875 (at node 4)
Average accepted flit rate = 0.0490625
Maximum accepted flit rate = 0.05575 (at node 11)
Total number of injected packets = 3129
Total number of injected flits = 3129
Average injected packet length = 1
Total number of accepted packets = 3140
Total number of accepted flits = 3140
Average accepted packet length = 1
Total in-flight flits = 25 (25 measured)
Draining remaining packets ...
Class 0:
Remaining flits: 5492 5498 5501 5505 5507 5510 5512 5513 5514 5515 [...] (19 flits)
Measured flits: 5492 5498 5501 5505 5507 5510 5512 5513 5514 5515 [...] (19 flits)
Class 0:
Remaining flits: 5492 5498 5505 5512 5514 5515 5516 5522 5523 5524 [...] (15 flits)
Measured flits: 5492 5498 5505 5512 5514 5515 5516 5522 5523 5524 [...] (15 flits)
Class 0:
Remaining flits: 5498 5505 5514 5522 5523 5524 5525 5526 5527 5528 [...] (11 flits)
Measured flits: 5498 5505 5514 5522 5523 5524 5525 5526 5527 5528 [...] (11 flits)
Class 0:
Remaining flits: 5505 5514 5522 5523 5524 5525 5526 5527 5528 5529 (10 flits)
Measured flits: 5505 5514 5522 5523 5524 5525 5526 5527 5528 5529 (10 flits)
Class 0:
Remaining flits: 5514 5522 5523 5526 5528 (5 flits)
Measured flits: 5514 5522 5523 5526 5528 (5 flits)
Class 0:
Remaining flits: 5526 (1 flits)
Measured flits: 5526 (1 flits)
Class 0:
Remaining flits: 5526 (1 flits)
Measured flits: 5526 (1 flits)
Class 0:
Remaining flits: 5526 (1 flits)
Measured flits: 5526 (1 flits)
Class 0:
Remaining flits: 5526 (1 flits)
Measured flits: 5526 (1 flits)
Class 0:
Remaining flits: 5526 (1 flits)
Measured flits: 5526 (1 flits)
Class 0:
Remaining flits: 5526 (1 flits)
Measured flits: 5526 (1 flits)
Class 0:
Remaining flits: 5526 (1 flits)
Measured flits: 5526 (1 flits)
Class 0:
Remaining flits: 5526 (1 flits)
Measured flits: 5526 (1 flits)
Class 0:
Remaining flits: 5526 (1 flits)
Measured flits: 5526 (1 flits)
Class 0:
Remaining flits: 5526 (1 flits)
Measured flits: 5526 (1 flits)
Class 0:
Remaining flits: 5526 (1 flits)
Measured flits: 5526 (1 flits)
Class 0:
Remaining flits: 5526 (1 flits)
Measured flits: 5526 (1 flits)
Class 0:
Remaining flits: 5526 (1 flits)
Measured flits: 5526 (1 flits)
Class 0:
Remaining flits: 5526 (1 flits)
Measured flits: 5526 (1 flits)
Class 0:
Remaining flits: 5526 (1 flits)
Measured flits: 5526 (1 flits)
Class 0:
Remaining flits: 5526 (1 flits)
Measured flits: 5526 (1 flits)
Class 0:
Remaining flits: 5526 (1 flits)
Measured flits: 5526 (1 flits)
Class 0:
Remaining flits: 5526 (1 flits)
Measured flits: 5526 (1 flits)
Class 0:
Remaining flits: 5526 (1 flits)
Measured flits: 5526 (1 flits)
Class 0:
Remaining flits: 5526 (1 flits)
Measured flits: 5526 (1 flits)
Class 0:
Remaining flits: 5526 (1 flits)
Measured flits: 5526 (1 flits)
Class 0:
Remaining flits: 5526 (1 flits)
Measured flits: 5526 (1 flits)
Class 0:
Remaining flits: 5526 (1 flits)
Measured flits: 5526 (1 flits)
Class 0:
Remaining flits: 5526 (1 flits)
Measured flits: 5526 (1 flits)
Class 0:
Remaining flits: 5526 (1 flits)
Measured flits: 5526 (1 flits)
Class 0:
Remaining flits: 5526 (1 flits)
Measured flits: 5526 (1 flits)
Class 0:
Remaining flits: 5526 (1 flits)
Measured flits: 5526 (1 flits)
Class 0:
Remaining flits: 5526 (1 flits)
Measured flits: 5526 (1 flits)
Class 0:
Remaining flits: 5526 (1 flits)
Measured flits: 5526 (1 flits)
Class 0:
Remaining flits: 5526 (1 flits)
Measured flits: 5526 (1 flits)
Class 0:
Remaining flits: 5526 (1 flits)
Measured flits: 5526 (1 flits)
Class 0:
Remaining flits: 5526 (1 flits)
Measured flits: 5526 (1 flits)
Class 0:
Remaining flits: 5526 (1 flits)
Measured flits: 5526 (1 flits)
Class 0:
Remaining flits: 5526 (1 flits)
Measured flits: 5526 (1 flits)
Class 0:
Remaining flits: 5526 (1 flits)
Measured flits: 5526 (1 flits)
Class 0:
Remaining flits: 5526 (1 flits)
Measured flits: 5526 (1 flits)
Class 0:
Remaining flits: 5526 (1 flits)
Measured flits: 5526 (1 flits)
Class 0:
Remaining flits: 5526 (1 flits)
Measured flits: 5526 (1 flits)
Class 0:
Remaining flits: 5526 (1 flits)
Measured flits: 5526 (1 flits)
Class 0:
Remaining flits: 5526 (1 flits)
Measured flits: 5526 (1 flits)
Class 0:
Remaining flits: 5526 (1 flits)
Measured flits: 5526 (1 flits)
Class 0:
Remaining flits: 5526 (1 flits)
Measured flits: 5526 (1 flits)
Class 0:
Remaining flits: 5526 (1 flits)
Measured flits: 5526 (1 flits)
Class 0:
Remaining flits: 5526 (1 flits)
Measured flits: 5526 (1 flits)
Class 0:
Remaining flits: 5526 (1 flits)
Measured flits: 5526 (1 flits)
Class 0:
Remaining flits: 5526 (1 flits)
Measured flits: 5526 (1 flits)
Class 0:
Remaining flits: 5526 (1 flits)
Measured flits: 5526 (1 flits)
Class 0:
Remaining flits: 5526 (1 flits)
Measured flits: 5526 (1 flits)
Class 0:
Remaining flits: 5526 (1 flits)
Measured flits: 5526 (1 flits)
Class 0:
Remaining flits: 5526 (1 flits)
Measured flits: 5526 (1 flits)
Class 0:
Remaining flits: 5526 (1 flits)
Measured flits: 5526 (1 flits)
Class 0:
Remaining flits: 5526 (1 flits)
Measured flits: 5526 (1 flits)
Class 0:
Remaining flits: 5526 (1 flits)
Measured flits: 5526 (1 flits)
Class 0:
Remaining flits: 5526 (1 flits)
Measured flits: 5526 (1 flits)
Class 0:
Remaining flits: 5526 (1 flits)
Measured flits: 5526 (1 flits)
Class 0:
Remaining flits: 5526 (1 flits)
Measured flits: 5526 (1 flits)
Class 0:
Remaining flits: 5526 (1 flits)
Measured flits: 5526 (1 flits)
Class 0:
Remaining flits: 5526 (1 flits)
Measured flits: 5526 (1 flits)
Class 0:
Remaining flits: 5526 (1 flits)
Measured flits: 5526 (1 flits)
Class 0:
Remaining flits: 5526 (1 flits)
Measured flits: 5526 (1 flits)
Class 0:
Remaining flits: 5526 (1 flits)
Measured flits: 5526 (1 flits)
Class 0:
Remaining flits: 5526 (1 flits)
Measured flits: 5526 (1 flits)
Class 0:
Remaining flits: 5526 (1 flits)
Measured flits: 5526 (1 flits)
Class 0:
Remaining flits: 5526 (1 flits)
Measured flits: 5526 (1 flits)
Class 0:
Remaining flits: 5526 (1 flits)
Measured flits: 5526 (1 flits)
Class 0:
Remaining flits: 5526 (1 flits)
Measured flits: 5526 (1 flits)
Class 0:
Remaining flits: 5526 (1 flits)
Measured flits: 5526 (1 flits)
Class 0:
Remaining flits: 5526 (1 flits)
Measured flits: 5526 (1 flits)
Class 0:
Remaining flits: 5526 (1 flits)
Measured flits: 5526 (1 flits)
Class 0:
Remaining flits: 5526 (1 flits)
Measured flits: 5526 (1 flits)
Class 0:
Remaining flits: 5526 (1 flits)
Measured flits: 5526 (1 flits)
Class 0:
Remaining flits: 5526 (1 flits)
Measured flits: 5526 (1 flits)
Class 0:
Remaining flits: 5526 (1 flits)
Measured flits: 5526 (1 flits)
Class 0:
Remaining flits: 5526 (1 flits)
Measured flits: 5526 (1 flits)
Class 0:
Remaining flits: 5526 (1 flits)
Measured flits: 5526 (1 flits)
Class 0:
Remaining flits: 5526 (1 flits)
Measured flits: 5526 (1 flits)
Class 0:
Remaining flits: 5526 (1 flits)
Measured flits: 5526 (1 flits)
Class 0:
Remaining flits: 5526 (1 flits)
Measured flits: 5526 (1 flits)
Class 0:
Remaining flits: 5526 (1 flits)
Measured flits: 5526 (1 flits)
Class 0:
Remaining flits: 5526 (1 flits)
Measured flits: 5526 (1 flits)
Class 0:
Remaining flits: 5526 (1 flits)
Measured flits: 5526 (1 flits)
Class 0:
Remaining flits: 5526 (1 flits)
Measured flits: 5526 (1 flits)
Class 0:
Remaining flits: 5526 (1 flits)
Measured flits: 5526 (1 flits)
Class 0:
Remaining flits: 5526 (1 flits)
Measured flits: 5526 (1 flits)
Class 0:
Remaining flits: 5526 (1 flits)
Measured flits: 5526 (1 flits)
Class 0:
Remaining flits: 5526 (1 flits)
Measured flits: 5526 (1 flits)
Class 0:
Remaining flits: 5526 (1 flits)
Measured flits: 5526 (1 flits)
Class 0:
Remaining flits: 5526 (1 flits)
Measured flits: 5526 (1 flits)
Class 0:
Remaining flits: 5526 (1 flits)
Measured flits: 5526 (1 flits)
Class 0:
Remaining flits: 5526 (1 flits)
Measured flits: 5526 (1 flits)
Class 0:
Remaining flits: 5526 (1 flits)
Measured flits: 5526 (1 flits)
Class 0:
Remaining flits: 5526 (1 flits)
Measured flits: 5526 (1 flits)
Class 0:
Remaining flits: 5526 (1 flits)
Measured flits: 5526 (1 flits)
Class 0:
Remaining flits: 5526 (1 flits)
Measured flits: 5526 (1 flits)
Class 0:
Remaining flits: 5526 (1 flits)
Measured flits: 5526 (1 flits)
Class 0:
Remaining flits: 5526 (1 flits)
Measured flits: 5526 (1 flits)
Time taken is 8000 cycles
====== Traffic class 0 ======

Total number of flits generated = 5530, changed lanes = 5257
Overall minimum packet latency = 7 (1 samples)
Overall average packet latency = 35.6966 (1 samples)
Overall maximum packet latency = 163 (1 samples)
Overall minimum network latency = 8 (1 samples)
Overall average network latency = 36.6966 (1 samples)
Overall maximum network latency = 164 (1 samples)
Overall minimum flit latency = 8 (1 samples)
Overall average flit latency = 36.8439 (1 samples)
Overall maximum flit latency = 164 (1 samples)
Overall minimum fragmentation = 0 (1 samples)
Overall average fragmentation = 0 (1 samples)
Overall maximum fragmentation = 0 (1 samples)
Overall minimum injected packet rate = 0.04275 (1 samples)
Overall average injected packet rate = 0.0488906 (1 samples)
Overall maximum injected packet rate = 0.054 (1 samples)
Overall minimum accepted packet rate = 0.03875 (1 samples)
Overall average accepted packet rate = 0.0490625 (1 samples)
Overall maximum accepted packet rate = 0.05575 (1 samples)
Overall minimum injected flit rate = 0.04275 (1 samples)
Overall average injected flit rate = 0.0488906 (1 samples)
Overall maximum injected flit rate = 0.054 (1 samples)
Overall minimum accepted flit rate = 0.03875 (1 samples)
Overall average accepted flit rate = 0.0490625 (1 samples)
Overall maximum accepted flit rate = 0.05575 (1 samples)
Overall average injected packet size = 1 (1 samples)
Overall average accepted packet size = 1 (1 samples)
Overall average hops = 3.51183 (1 samples)
Overall throughput of the network (flits/cycle) = 1.38225
Overall throughput of the network (packets/cycle) = 1.38225
Total run time 5.94233
