make: Nothing to be done for 'all'.
Master: Running timer....
Master: Running SRC....
BEGIN Configuration File: ./examples/mesh88_lat_blackscholes
// $Id$

topology = mesh;
k = 8;
n = 2;

// Routing
routing_function = dor;

// Flow control
num_vcs     = 1;
vc_buf_size = 4;
wait_for_tail_credit = 1;

// Router architecture
vc_allocator = islip;
sw_allocator = islip;
alloc_iters  = 1;

credit_delay   = 1;
routing_delay  = 1;
vc_alloc_delay = 1;
sw_alloc_delay = 1;

input_speedup     = 1;
output_speedup    = 1;
internal_speedup  = 1.0;

vc_busy_when_full = 0;

// Traffic
workload=netrace({/home/sarab/Downloads/BookSim_Benchmark_files/blackscholes_64c_simmedium.tra.bz2,100000000,1,2,1,1,0);

// Simulation
sim_type = workload;

END Configuration File: ./examples/mesh88_lat_blackscholes
Warming up...
===== Time: 50000 =====
Class 0:
Packets read from trace = 1167 of 16982735 (0%)
Future packets = 1
Waiting packets = 0
Stalled packets = 1130
Packets pending injection = 5
Packets in flight = 15
Minimum packet latency = 45
Average packet latency = 5371.69
Maximum packet latency = 20963
Minimum network latency = 45
Average network latency = 5370.19
Maximum network latency = 20960
Slowest packet = 10
Minimum flit latency = 45
Average flit latency = 3721.4
Maximum flit latency = 20952
Slowest flit = 45
Minimum fragmentation = 0
Average fragmentation = 4184.25
Maximum fragmentation = 15291
Minimum injected packet rate = 0 (at node 0)
Average injected packet rate = 9.375e-06
Maximum injected packet rate = 0.00018 (at node 40)
Minimum accepted packet rate = 0 (at node 0)
Average accepted packet rate = 5e-06
Maximum accepted packet rate = 0.00016 (at node 2)
Minimum injected flit rate = 0 (at node 0)
Average injected flit rate = 4.3125e-05
Maximum injected flit rate = 0.0009 (at node 40)
Minimum accepted flit rate = 0 (at node 0)
Average accepted flit rate = 2.84375e-05
Maximum accepted flit rate = 0.00088 (at node 2)
Total number of injected packets = 30
Total number of injected flits = 138
Average injected packet length = 4.6
Total number of accepted packets = 16
Total number of accepted flits = 91
Average accepted packet length = 5.6875
Total in-flight flits = 56 (0 measured)
===== Time: 100000 =====
Class 0:
Packets read from trace = 2298 of 16982735 (0%)
Future packets = 1
Waiting packets = 0
Stalled packets = 2241
Packets pending injection = 25
Packets in flight = 15
Minimum packet latency = 45
Average packet latency = 5371.69
Maximum packet latency = 20963
Minimum network latency = 45
Average network latency = 5370.19
Maximum network latency = 20960
Slowest packet = 10
Minimum flit latency = 45
Average flit latency = 3721.4
Maximum flit latency = 20952
Slowest flit = 45
Minimum fragmentation = 0
Average fragmentation = 4184.25
Maximum fragmentation = 15291
Minimum injected packet rate = 0 (at node 0)
Average injected packet rate = 4.6875e-06
Maximum injected packet rate = 9e-05 (at node 40)
Minimum accepted packet rate = 0 (at node 0)
Average accepted packet rate = 2.5e-06
Maximum accepted packet rate = 8e-05 (at node 2)
Minimum injected flit rate = 0 (at node 0)
Average injected flit rate = 2.15625e-05
Maximum injected flit rate = 0.00045 (at node 40)
Minimum accepted flit rate = 0 (at node 0)
Average accepted flit rate = 1.42188e-05
Maximum accepted flit rate = 0.00044 (at node 2)
Total number of injected packets = 30
Total number of injected flits = 138
Average injected packet length = 4.6
Total number of accepted packets = 16
Total number of accepted flits = 91
Average accepted packet length = 5.6875
Total in-flight flits = 56 (0 measured)
===== Time: 150000 =====
Class 0:
Packets read from trace = 3432 of 16982735 (0%)
Future packets = 1
Waiting packets = 0
Stalled packets = 3364
Packets pending injection = 36
Packets in flight = 15
Minimum packet latency = 45
Average packet latency = 5371.69
Maximum packet latency = 20963
Minimum network latency = 45
Average network latency = 5370.19
Maximum network latency = 20960
Slowest packet = 10
Minimum flit latency = 45
Average flit latency = 3721.4
Maximum flit latency = 20952
Slowest flit = 45
Minimum fragmentation = 0
Average fragmentation = 4184.25
Maximum fragmentation = 15291
Minimum injected packet rate = 0 (at node 0)
Average injected packet rate = 3.125e-06
Maximum injected packet rate = 6e-05 (at node 40)
Minimum accepted packet rate = 0 (at node 0)
Average accepted packet rate = 1.66667e-06
Maximum accepted packet rate = 5.33333e-05 (at node 2)
Minimum injected flit rate = 0 (at node 0)
Average injected flit rate = 1.4375e-05
Maximum injected flit rate = 0.0003 (at node 40)
Minimum accepted flit rate = 0 (at node 0)
Average accepted flit rate = 9.47917e-06
Maximum accepted flit rate = 0.000293333 (at node 2)
Total number of injected packets = 30
Total number of injected flits = 138
Average injected packet length = 4.6
Total number of accepted packets = 16
Total number of accepted flits = 91
Average accepted packet length = 5.6875
Total in-flight flits = 56 (0 measured)
Warmup ends after 150000 cycles.
Beginning measurements...
===== Time: 200000 =====
Class 0:
Packets read from trace = 4349 of 16982735 (0%)
Future packets = 1
Waiting packets = 0
Stalled packets = 4212
Packets pending injection = 71
Packets in flight = 22
Minimum packet latency = 299
Average packet latency = 1522
Maximum packet latency = 16820
Minimum network latency = 299
Average network latency = 1519.22
Maximum network latency = 16820
Slowest packet = 33
Minimum flit latency = 43
Average flit latency = 1221.4
Maximum flit latency = 16815
Slowest flit = 159
Minimum fragmentation = 230
Average fragmentation = 1451.44
Maximum fragmentation = 16773
Minimum injected packet rate = 0 (at node 0)
Average injected packet rate = 1.0625e-05
Maximum injected packet rate = 0.00052 (at node 43)
Minimum accepted packet rate = 0 (at node 0)
Average accepted packet rate = 8.4375e-06
Maximum accepted packet rate = 0.00052 (at node 23)
Minimum injected flit rate = 0 (at node 0)
Average injected flit rate = 5.21875e-05
Maximum injected flit rate = 0.0026 (at node 43)
Minimum accepted flit rate = 0 (at node 0)
Average accepted flit rate = 4.34375e-05
Maximum accepted flit rate = 0.0026 (at node 23)
Total number of injected packets = 34
Total number of injected flits = 167
Average injected packet length = 4.91176
Total number of accepted packets = 27
Total number of accepted flits = 139
Average accepted packet length = 5.14815
Total in-flight flits = 87 (31 measured)
===== Time: 250000 =====
Class 0:
Packets read from trace = 5074 of 16982735 (0%)
Future packets = 1
Waiting packets = 0
Stalled packets = 4884
Packets pending injection = 117
Packets in flight = 26
Minimum packet latency = 299
Average packet latency = 1684.33
Maximum packet latency = 16820
Minimum network latency = 299
Average network latency = 1681.63
Maximum network latency = 16820
Slowest packet = 33
Minimum flit latency = 43
Average flit latency = 1167.03
Maximum flit latency = 16815
Slowest flit = 159
Minimum fragmentation = 230
Average fragmentation = 1615.7
Maximum fragmentation = 16773
Minimum injected packet rate = 0 (at node 0)
Average injected packet rate = 6.40625e-06
Maximum injected packet rate = 0.00026 (at node 43)
Minimum accepted packet rate = 0 (at node 0)
Average accepted packet rate = 4.6875e-06
Maximum accepted packet rate = 0.00026 (at node 23)
Minimum injected flit rate = 0 (at node 0)
Average injected flit rate = 3.125e-05
Maximum injected flit rate = 0.0013 (at node 43)
Minimum accepted flit rate = 0 (at node 0)
Average accepted flit rate = 2.40625e-05
Maximum accepted flit rate = 0.0013 (at node 23)
Total number of injected packets = 41
Total number of injected flits = 200
Average injected packet length = 4.87805
Total number of accepted packets = 30
Total number of accepted flits = 154
Average accepted packet length = 5.13333
Total in-flight flits = 107 (51 measured)
===== Time: 300000 =====
Class 0:
Packets read from trace = 5851 of 16982735 (0%)
Future packets = 1
Waiting packets = 0
Stalled packets = 5592
Packets pending injection = 176
Packets in flight = 36
Minimum packet latency = 299
Average packet latency = 1684.33
Maximum packet latency = 16820
Minimum network latency = 299
Average network latency = 1681.63
Maximum network latency = 16820
Slowest packet = 33
Minimum flit latency = 43
Average flit latency = 1167.03
Maximum flit latency = 16815
Slowest flit = 159
Minimum fragmentation = 230
Average fragmentation = 1615.7
Maximum fragmentation = 16773
Minimum injected packet rate = 0 (at node 0)
Average injected packet rate = 5.10417e-06
Maximum injected packet rate = 0.000186667 (at node 43)
Minimum accepted packet rate = 0 (at node 0)
Average accepted packet rate = 3.125e-06
Maximum accepted packet rate = 0.000173333 (at node 23)
Minimum injected flit rate = 0 (at node 0)
Average injected flit rate = 2.46875e-05
Maximum injected flit rate = 0.000926667 (at node 43)
Minimum accepted flit rate = 0 (at node 0)
Average accepted flit rate = 1.60417e-05
Maximum accepted flit rate = 0.000866667 (at node 23)
Total number of injected packets = 49
Total number of injected flits = 237
Average injected packet length = 4.83673
Total number of accepted packets = 30
Total number of accepted flits = 154
Average accepted packet length = 5.13333
Total in-flight flits = 157 (101 measured)
===== Time: 350000 =====
Class 0:
Packets read from trace = 6804 of 16982735 (0%)
Future packets = 1
Waiting packets = 0
Stalled packets = 6434
Packets pending injection = 286
Packets in flight = 37
Minimum packet latency = 299
Average packet latency = 1684.33
Maximum packet latency = 16820
Minimum network latency = 299
Average network latency = 1681.63
Maximum network latency = 16820
Slowest packet = 33
Minimum flit latency = 43
Average flit latency = 1167.03
Maximum flit latency = 16815
Slowest flit = 159
Minimum fragmentation = 230
Average fragmentation = 1615.7
Maximum fragmentation = 16773
Minimum injected packet rate = 0 (at node 0)
Average injected packet rate = 3.90625e-06
Maximum injected packet rate = 0.00014 (at node 43)
Minimum accepted packet rate = 0 (at node 0)
Average accepted packet rate = 2.34375e-06
Maximum accepted packet rate = 0.00013 (at node 23)
Minimum injected flit rate = 0 (at node 0)
Average injected flit rate = 1.88281e-05
Maximum injected flit rate = 0.000695 (at node 43)
Minimum accepted flit rate = 0 (at node 0)
Average accepted flit rate = 1.20312e-05
Maximum accepted flit rate = 0.00065 (at node 23)
Total number of injected packets = 50
Total number of injected flits = 241
Average injected packet length = 4.82
Total number of accepted packets = 30
Total number of accepted flits = 154
Average accepted packet length = 5.13333
Total in-flight flits = 162 (106 measured)
===== Time: 400000 =====
Class 0:
Packets read from trace = 7824 of 16982735 (0%)
Future packets = 1
Waiting packets = 0
Stalled packets = 7401
Packets pending injection = 337
Packets in flight = 39
Minimum packet latency = 299
Average packet latency = 1684.33
Maximum packet latency = 16820
Minimum network latency = 299
Average network latency = 1681.63
Maximum network latency = 16820
Slowest packet = 33
Minimum flit latency = 43
Average flit latency = 1167.03
Maximum flit latency = 16815
Slowest flit = 159
Minimum fragmentation = 230
Average fragmentation = 1615.7
Maximum fragmentation = 16773
Minimum injected packet rate = 0 (at node 0)
Average injected packet rate = 3.25e-06
Maximum injected packet rate = 0.000112 (at node 43)
Minimum accepted packet rate = 0 (at node 0)
Average accepted packet rate = 1.875e-06
Maximum accepted packet rate = 0.000104 (at node 23)
Minimum injected flit rate = 0 (at node 0)
Average injected flit rate = 1.56875e-05
Maximum injected flit rate = 0.000556 (at node 43)
Minimum accepted flit rate = 0 (at node 0)
Average accepted flit rate = 9.625e-06
Maximum accepted flit rate = 0.00052 (at node 23)
Total number of injected packets = 52
Total number of injected flits = 251
Average injected packet length = 4.82692
Total number of accepted packets = 30
Total number of accepted flits = 154
Average accepted packet length = 5.13333
Total in-flight flits = 172 (116 measured)
===== Time: 450000 =====
Class 0:
Packets read from trace = 9015 of 16982735 (0%)
Future packets = 1
Waiting packets = 0
Stalled packets = 8550
Packets pending injection = 378
Packets in flight = 40
Minimum packet latency = 299
Average packet latency = 1684.33
Maximum packet latency = 16820
Minimum network latency = 299
Average network latency = 1681.63
Maximum network latency = 16820
Slowest packet = 33
Minimum flit latency = 43
Average flit latency = 1167.03
Maximum flit latency = 16815
Slowest flit = 159
Minimum fragmentation = 230
Average fragmentation = 1615.7
Maximum fragmentation = 16773
Minimum injected packet rate = 0 (at node 0)
Average injected packet rate = 2.70833e-06
Maximum injected packet rate = 9.33333e-05 (at node 43)
Minimum accepted packet rate = 0 (at node 0)
Average accepted packet rate = 1.5625e-06
Maximum accepted packet rate = 8.66667e-05 (at node 23)
Minimum injected flit rate = 0 (at node 0)
Average injected flit rate = 1.30729e-05
Maximum injected flit rate = 0.000463333 (at node 43)
Minimum accepted flit rate = 0 (at node 0)
Average accepted flit rate = 8.02083e-06
Maximum accepted flit rate = 0.000433333 (at node 23)
Total number of injected packets = 52
Total number of injected flits = 251
Average injected packet length = 4.82692
Total number of accepted packets = 30
Total number of accepted flits = 154
Average accepted packet length = 5.13333
Total in-flight flits = 177 (121 measured)
===== Time: 500000 =====
Class 0:
Packets read from trace = 10205 of 16982735 (0%)
Future packets = 1
Waiting packets = 0
Stalled packets = 9694
Packets pending injection = 424
Packets in flight = 40
Minimum packet latency = 299
Average packet latency = 1684.33
Maximum packet latency = 16820
Minimum network latency = 299
Average network latency = 1681.63
Maximum network latency = 16820
Slowest packet = 33
Minimum flit latency = 43
Average flit latency = 1167.03
Maximum flit latency = 16815
Slowest flit = 159
Minimum fragmentation = 230
Average fragmentation = 1615.7
Maximum fragmentation = 16773
Minimum injected packet rate = 0 (at node 0)
Average injected packet rate = 2.32143e-06
Maximum injected packet rate = 8e-05 (at node 43)
Minimum accepted packet rate = 0 (at node 0)
Average accepted packet rate = 1.33929e-06
Maximum accepted packet rate = 7.42857e-05 (at node 23)
Minimum injected flit rate = 0 (at node 0)
Average injected flit rate = 1.12054e-05
Maximum injected flit rate = 0.000397143 (at node 43)
Minimum accepted flit rate = 0 (at node 0)
Average accepted flit rate = 6.875e-06
Maximum accepted flit rate = 0.000371429 (at node 23)
Total number of injected packets = 52
Total number of injected flits = 251
Average injected packet length = 4.82692
Total number of accepted packets = 30
Total number of accepted flits = 154
Average accepted packet length = 5.13333
Total in-flight flits = 177 (121 measured)
===== Time: 550000 =====
Class 0:
Packets read from trace = 11395 of 16982735 (0%)
Future packets = 1
Waiting packets = 0
Stalled packets = 10835
Packets pending injection = 473
Packets in flight = 40
Minimum packet latency = 299
Average packet latency = 1684.33
Maximum packet latency = 16820
Minimum network latency = 299
Average network latency = 1681.63
Maximum network latency = 16820
Slowest packet = 33
Minimum flit latency = 43
Average flit latency = 1167.03
Maximum flit latency = 16815
Slowest flit = 159
Minimum fragmentation = 230
Average fragmentation = 1615.7
Maximum fragmentation = 16773
Minimum injected packet rate = 0 (at node 0)
Average injected packet rate = 2.03125e-06
Maximum injected packet rate = 7e-05 (at node 43)
Minimum accepted packet rate = 0 (at node 0)
Average accepted packet rate = 1.17187e-06
Maximum accepted packet rate = 6.5e-05 (at node 23)
Minimum injected flit rate = 0 (at node 0)
Average injected flit rate = 9.80469e-06
Maximum injected flit rate = 0.0003475 (at node 43)
Minimum accepted flit rate = 0 (at node 0)
Average accepted flit rate = 6.01562e-06
Maximum accepted flit rate = 0.000325 (at node 23)
Total number of injected packets = 52
Total number of injected flits = 251
Average injected packet length = 4.82692
Total number of accepted packets = 30
Total number of accepted flits = 154
Average accepted packet length = 5.13333
Total in-flight flits = 177 (121 measured)
===== Time: 600000 =====
Class 0:
Packets read from trace = 12578 of 16982735 (0%)
Future packets = 1
Waiting packets = 0
Stalled packets = 11977
Packets pending injection = 514
Packets in flight = 40
Minimum packet latency = 299
Average packet latency = 1684.33
Maximum packet latency = 16820
Minimum network latency = 299
Average network latency = 1681.63
Maximum network latency = 16820
Slowest packet = 33
Minimum flit latency = 43
Average flit latency = 1167.03
Maximum flit latency = 16815
Slowest flit = 159
Minimum fragmentation = 230
Average fragmentation = 1615.7
Maximum fragmentation = 16773
Minimum injected packet rate = 0 (at node 0)
Average injected packet rate = 1.80556e-06
Maximum injected packet rate = 6.22222e-05 (at node 43)
Minimum accepted packet rate = 0 (at node 0)
Average accepted packet rate = 1.04167e-06
Maximum accepted packet rate = 5.77778e-05 (at node 23)
Minimum injected flit rate = 0 (at node 0)
Average injected flit rate = 8.71528e-06
Maximum injected flit rate = 0.000308889 (at node 43)
Minimum accepted flit rate = 0 (at node 0)
Average accepted flit rate = 5.34722e-06
Maximum accepted flit rate = 0.000288889 (at node 23)
Total number of injected packets = 52
Total number of injected flits = 251
Average injected packet length = 4.82692
Total number of accepted packets = 30
Total number of accepted flits = 154
Average accepted packet length = 5.13333
Total in-flight flits = 177 (121 measured)
===== Time: 650000 =====
Class 0:
Packets read from trace = 13775 of 16982735 (0%)
Future packets = 1
Waiting packets = 0
Stalled packets = 13125
Packets pending injection = 563
Packets in flight = 40
Minimum packet latency = 299
Average packet latency = 1684.33
Maximum packet latency = 16820
Minimum network latency = 299
Average network latency = 1681.63
Maximum network latency = 16820
Slowest packet = 33
Minimum flit latency = 43
Average flit latency = 1167.03
Maximum flit latency = 16815
Slowest flit = 159
Minimum fragmentation = 230
Average fragmentation = 1615.7
Maximum fragmentation = 16773
Minimum injected packet rate = 0 (at node 0)
Average injected packet rate = 1.625e-06
Maximum injected packet rate = 5.6e-05 (at node 43)
Minimum accepted packet rate = 0 (at node 0)
Average accepted packet rate = 9.375e-07
Maximum accepted packet rate = 5.2e-05 (at node 23)
Minimum injected flit rate = 0 (at node 0)
Average injected flit rate = 7.84375e-06
Maximum injected flit rate = 0.000278 (at node 43)
Minimum accepted flit rate = 0 (at node 0)
Average accepted flit rate = 4.8125e-06
Maximum accepted flit rate = 0.00026 (at node 23)
Total number of injected packets = 52
Total number of injected flits = 251
Average injected packet length = 4.82692
Total number of accepted packets = 30
Total number of accepted flits = 154
Average accepted packet length = 5.13333
Total in-flight flits = 177 (121 measured)
Completed measurements after 650000 cycles.
Draining remaining packets ...
Class 0:
Remaining flits: 14 15 16 51 56 77 78 79 80 81 [...] (177 flits)
Measured flits: 147 148 149 150 151 152 153 154 155 156 [...] (121 flits)
Class 0:
Remaining flits: 14 15 16 56 77 78 79 80 81 87 [...] (174 flits)
Measured flits: 147 148 149 150 151 152 153 154 155 156 [...] (119 flits)
Class 0:
Remaining flits: 14 15 16 77 78 79 80 81 87 88 [...] (169 flits)
Measured flits: 147 148 149 150 151 152 153 154 155 156 [...] (115 flits)
Class 0:
Remaining flits: 16 77 78 79 80 81 87 88 89 90 [...] (156 flits)
Measured flits: 147 148 149 150 151 152 153 154 155 156 [...] (106 flits)
Class 0:
Remaining flits: 16 77 78 79 80 81 87 88 89 90 [...] (152 flits)
Measured flits: 147 148 149 150 151 152 153 154 155 156 [...] (105 flits)
Class 0:
Remaining flits: 16 77 78 79 80 81 87 88 89 90 [...] (143 flits)
Measured flits: 147 148 149 150 151 152 153 154 155 156 [...] (101 flits)
Class 0:
Remaining flits: 77 78 79 80 81 91 107 108 109 110 [...] (124 flits)
Measured flits: 147 148 149 150 151 152 153 154 155 156 [...] (92 flits)
Class 0:
Remaining flits: 80 81 107 108 109 110 111 121 127 128 [...] (111 flits)
Measured flits: 147 148 149 150 151 152 153 154 155 156 [...] (83 flits)
Class 0:
Remaining flits: 107 108 109 110 111 121 127 128 129 130 [...] (100 flits)
Measured flits: 147 148 149 150 151 152 153 154 155 156 [...] (75 flits)
Class 0:
Remaining flits: 107 108 109 110 111 121 127 128 129 130 [...] (96 flits)
Measured flits: 147 148 149 150 151 152 153 154 155 156 [...] (75 flits)
Class 0:
Remaining flits: 107 108 109 110 111 121 127 128 129 130 [...] (84 flits)
Measured flits: 147 148 149 150 151 152 153 154 155 156 [...] (63 flits)
Class 0:
Remaining flits: 121 127 128 129 130 131 132 133 134 135 [...] (75 flits)
Measured flits: 147 148 149 150 151 152 153 154 155 156 [...] (59 flits)
Class 0:
Remaining flits: 121 127 128 129 130 131 134 135 136 137 [...] (66 flits)
Measured flits: 147 148 149 150 151 152 153 154 155 156 [...] (52 flits)
Class 0:
Remaining flits: 121 127 128 129 130 131 137 138 139 140 [...] (56 flits)
Measured flits: 147 148 149 150 151 152 153 154 155 156 [...] (45 flits)
Class 0:
Remaining flits: 121 127 128 129 130 131 137 138 139 140 [...] (56 flits)
Measured flits: 147 148 149 150 151 152 153 154 155 156 [...] (45 flits)
Class 0:
Remaining flits: 121 127 128 129 130 131 141 147 148 149 [...] (48 flits)
Measured flits: 147 148 149 150 151 152 153 154 155 156 [...] (41 flits)
Class 0:
Remaining flits: 121 127 128 129 130 131 147 148 149 150 [...] (46 flits)
Measured flits: 147 148 149 150 151 152 153 154 155 156 [...] (40 flits)
Class 0:
Remaining flits: 121 127 128 129 130 131 147 148 149 150 [...] (42 flits)
Measured flits: 147 148 149 150 151 152 153 154 155 156 [...] (36 flits)
Class 0:
Remaining flits: 121 127 128 129 130 131 147 148 149 150 [...] (41 flits)
Measured flits: 147 148 149 150 151 152 153 154 155 156 [...] (35 flits)
Class 0:
Remaining flits: 121 127 128 129 130 131 147 148 149 150 [...] (41 flits)
Measured flits: 147 148 149 150 151 152 153 154 155 156 [...] (35 flits)
Class 0:
Remaining flits: 121 127 128 129 130 131 147 148 149 150 [...] (41 flits)
Measured flits: 147 148 149 150 151 152 153 154 155 156 [...] (35 flits)
Class 0:
Remaining flits: 121 127 128 129 130 131 147 148 149 150 [...] (41 flits)
Measured flits: 147 148 149 150 151 152 153 154 155 156 [...] (35 flits)
Class 0:
Remaining flits: 121 127 128 129 130 131 147 148 149 150 [...] (41 flits)
Measured flits: 147 148 149 150 151 152 153 154 155 156 [...] (35 flits)
Class 0:
Remaining flits: 121 127 128 129 130 131 147 148 149 150 [...] (41 flits)
Measured flits: 147 148 149 150 151 152 153 154 155 156 [...] (35 flits)
Class 0:
Remaining flits: 121 127 128 129 130 131 147 148 149 150 [...] (41 flits)
Measured flits: 147 148 149 150 151 152 153 154 155 156 [...] (35 flits)
Class 0:
Remaining flits: 121 127 128 129 130 131 147 148 149 150 [...] (41 flits)
Measured flits: 147 148 149 150 151 152 153 154 155 156 [...] (35 flits)
Class 0:
Remaining flits: 121 127 128 129 130 131 147 148 149 150 [...] (41 flits)
Measured flits: 147 148 149 150 151 152 153 154 155 156 [...] (35 flits)
Class 0:
Remaining flits: 121 127 128 129 130 131 147 148 149 150 [...] (41 flits)
Measured flits: 147 148 149 150 151 152 153 154 155 156 [...] (35 flits)
Class 0:
Remaining flits: 121 127 128 129 130 131 147 148 149 150 [...] (41 flits)
Measured flits: 147 148 149 150 151 152 153 154 155 156 [...] (35 flits)
Class 0:
Remaining flits: 121 127 128 129 130 131 147 148 149 150 [...] (41 flits)
Measured flits: 147 148 149 150 151 152 153 154 155 156 [...] (35 flits)
Class 0:
Remaining flits: 121 127 128 129 130 131 147 148 149 150 [...] (41 flits)
Measured flits: 147 148 149 150 151 152 153 154 155 156 [...] (35 flits)
Class 0:
Remaining flits: 121 127 128 129 130 131 147 148 149 150 [...] (41 flits)
Measured flits: 147 148 149 150 151 152 153 154 155 156 [...] (35 flits)
Class 0:
Remaining flits: 121 127 128 129 130 131 147 148 149 150 [...] (41 flits)
Measured flits: 147 148 149 150 151 152 153 154 155 156 [...] (35 flits)
Class 0:
Remaining flits: 121 127 128 129 130 131 147 148 149 150 [...] (41 flits)
Measured flits: 147 148 149 150 151 152 153 154 155 156 [...] (35 flits)
Class 0:
Remaining flits: 121 127 128 129 130 131 147 148 149 150 [...] (41 flits)
Measured flits: 147 148 149 150 151 152 153 154 155 156 [...] (35 flits)
Class 0:
Remaining flits: 121 127 128 129 130 131 147 148 149 150 [...] (41 flits)
Measured flits: 147 148 149 150 151 152 153 154 155 156 [...] (35 flits)
Class 0:
Remaining flits: 121 127 128 129 130 131 147 148 149 150 [...] (41 flits)
Measured flits: 147 148 149 150 151 152 153 154 155 156 [...] (35 flits)
Class 0:
Remaining flits: 121 127 128 129 130 131 147 148 149 150 [...] (41 flits)
Measured flits: 147 148 149 150 151 152 153 154 155 156 [...] (35 flits)
Class 0:
Remaining flits: 121 127 128 129 130 131 147 148 149 150 [...] (41 flits)
Measured flits: 147 148 149 150 151 152 153 154 155 156 [...] (35 flits)
Class 0:
Remaining flits: 121 127 128 129 130 131 147 148 149 150 [...] (41 flits)
Measured flits: 147 148 149 150 151 152 153 154 155 156 [...] (35 flits)
Class 0:
Remaining flits: 121 127 128 129 130 131 147 148 149 150 [...] (41 flits)
Measured flits: 147 148 149 150 151 152 153 154 155 156 [...] (35 flits)
Class 0:
Remaining flits: 121 127 128 129 130 131 147 148 149 150 [...] (41 flits)
Measured flits: 147 148 149 150 151 152 153 154 155 156 [...] (35 flits)
Class 0:
Remaining flits: 121 127 128 129 130 131 147 148 149 150 [...] (41 flits)
Measured flits: 147 148 149 150 151 152 153 154 155 156 [...] (35 flits)
Class 0:
Remaining flits: 121 127 128 129 130 131 147 148 149 150 [...] (41 flits)
Measured flits: 147 148 149 150 151 152 153 154 155 156 [...] (35 flits)
Class 0:
Remaining flits: 121 127 128 129 130 131 147 148 149 150 [...] (41 flits)
Measured flits: 147 148 149 150 151 152 153 154 155 156 [...] (35 flits)
Class 0:
Remaining flits: 121 127 128 129 130 131 147 148 149 150 [...] (41 flits)
Measured flits: 147 148 149 150 151 152 153 154 155 156 [...] (35 flits)
Class 0:
Remaining flits: 121 127 128 129 130 131 147 148 149 150 [...] (41 flits)
Measured flits: 147 148 149 150 151 152 153 154 155 156 [...] (35 flits)
Class 0:
Remaining flits: 121 127 128 129 130 131 147 148 149 150 [...] (41 flits)
Measured flits: 147 148 149 150 151 152 153 154 155 156 [...] (35 flits)
Class 0:
Remaining flits: 121 127 128 129 130 131 147 148 149 150 [...] (41 flits)
Measured flits: 147 148 149 150 151 152 153 154 155 156 [...] (35 flits)
Class 0:
Remaining flits: 121 127 128 129 130 131 147 148 149 150 [...] (41 flits)
Measured flits: 147 148 149 150 151 152 153 154 155 156 [...] (35 flits)
Class 0:
Remaining flits: 121 127 128 129 130 131 147 148 149 150 [...] (41 flits)
Measured flits: 147 148 149 150 151 152 153 154 155 156 [...] (35 flits)
Class 0:
Remaining flits: 121 127 128 129 130 131 147 148 149 150 [...] (41 flits)
Measured flits: 147 148 149 150 151 152 153 154 155 156 [...] (35 flits)
Class 0:
Remaining flits: 121 127 128 129 130 131 147 148 149 150 [...] (41 flits)
Measured flits: 147 148 149 150 151 152 153 154 155 156 [...] (35 flits)
Class 0:
Remaining flits: 121 127 128 129 130 131 147 148 149 150 [...] (41 flits)
Measured flits: 147 148 149 150 151 152 153 154 155 156 [...] (35 flits)
Class 0:
Remaining flits: 121 127 128 129 130 131 147 148 149 150 [...] (41 flits)
Measured flits: 147 148 149 150 151 152 153 154 155 156 [...] (35 flits)
Class 0:
Remaining flits: 121 127 128 129 130 131 147 148 149 150 [...] (41 flits)
Measured flits: 147 148 149 150 151 152 153 154 155 156 [...] (35 flits)
Class 0:
Remaining flits: 121 127 128 129 130 131 147 148 149 150 [...] (41 flits)
Measured flits: 147 148 149 150 151 152 153 154 155 156 [...] (35 flits)
Class 0:
Remaining flits: 121 127 128 129 130 131 147 148 149 150 [...] (41 flits)
Measured flits: 147 148 149 150 151 152 153 154 155 156 [...] (35 flits)
Class 0:
Remaining flits: 121 127 128 129 130 131 147 148 149 150 [...] (41 flits)
Measured flits: 147 148 149 150 151 152 153 154 155 156 [...] (35 flits)
Class 0:
Remaining flits: 121 127 128 129 130 131 147 148 149 150 [...] (41 flits)
Measured flits: 147 148 149 150 151 152 153 154 155 156 [...] (35 flits)
Class 0:
Remaining flits: 121 127 128 129 130 131 147 148 149 150 [...] (41 flits)
Measured flits: 147 148 149 150 151 152 153 154 155 156 [...] (35 flits)
Class 0:
Remaining flits: 121 127 128 129 130 131 147 148 149 150 [...] (41 flits)
Measured flits: 147 148 149 150 151 152 153 154 155 156 [...] (35 flits)
Class 0:
Remaining flits: 121 127 128 129 130 131 147 148 149 150 [...] (41 flits)
Measured flits: 147 148 149 150 151 152 153 154 155 156 [...] (35 flits)
Class 0:
Remaining flits: 121 127 128 129 130 131 147 148 149 150 [...] (41 flits)
Measured flits: 147 148 149 150 151 152 153 154 155 156 [...] (35 flits)
Class 0:
Remaining flits: 121 127 128 129 130 131 147 148 149 150 [...] (41 flits)
Measured flits: 147 148 149 150 151 152 153 154 155 156 [...] (35 flits)
Class 0:
Remaining flits: 121 127 128 129 130 131 147 148 149 150 [...] (41 flits)
Measured flits: 147 148 149 150 151 152 153 154 155 156 [...] (35 flits)
Class 0:
Remaining flits: 121 127 128 129 130 131 147 148 149 150 [...] (41 flits)
Measured flits: 147 148 149 150 151 152 153 154 155 156 [...] (35 flits)
Class 0:
Remaining flits: 121 127 128 129 130 131 147 148 149 150 [...] (41 flits)
Measured flits: 147 148 149 150 151 152 153 154 155 156 [...] (35 flits)
Class 0:
Remaining flits: 121 127 128 129 130 131 147 148 149 150 [...] (41 flits)
Measured flits: 147 148 149 150 151 152 153 154 155 156 [...] (35 flits)
Class 0:
Remaining flits: 121 127 128 129 130 131 147 148 149 150 [...] (41 flits)
Measured flits: 147 148 149 150 151 152 153 154 155 156 [...] (35 flits)
Class 0:
Remaining flits: 121 127 128 129 130 131 147 148 149 150 [...] (41 flits)
Measured flits: 147 148 149 150 151 152 153 154 155 156 [...] (35 flits)
Class 0:
Remaining flits: 121 127 128 129 130 131 147 148 149 150 [...] (41 flits)
Measured flits: 147 148 149 150 151 152 153 154 155 156 [...] (35 flits)
Class 0:
Remaining flits: 121 127 128 129 130 131 147 148 149 150 [...] (41 flits)
Measured flits: 147 148 149 150 151 152 153 154 155 156 [...] (35 flits)
Class 0:
Remaining flits: 121 127 128 129 130 131 147 148 149 150 [...] (41 flits)
Measured flits: 147 148 149 150 151 152 153 154 155 156 [...] (35 flits)
Class 0:
Remaining flits: 121 127 128 129 130 131 147 148 149 150 [...] (41 flits)
Measured flits: 147 148 149 150 151 152 153 154 155 156 [...] (35 flits)
Class 0:
Remaining flits: 121 127 128 129 130 131 147 148 149 150 [...] (41 flits)
Measured flits: 147 148 149 150 151 152 153 154 155 156 [...] (35 flits)
Class 0:
Remaining flits: 121 127 128 129 130 131 147 148 149 150 [...] (41 flits)
Measured flits: 147 148 149 150 151 152 153 154 155 156 [...] (35 flits)
Class 0:
Remaining flits: 121 127 128 129 130 131 147 148 149 150 [...] (41 flits)
Measured flits: 147 148 149 150 151 152 153 154 155 156 [...] (35 flits)
Class 0:
Remaining flits: 121 127 128 129 130 131 147 148 149 150 [...] (41 flits)
Measured flits: 147 148 149 150 151 152 153 154 155 156 [...] (35 flits)
Class 0:
Remaining flits: 121 127 128 129 130 131 147 148 149 150 [...] (41 flits)
Measured flits: 147 148 149 150 151 152 153 154 155 156 [...] (35 flits)
Class 0:
Remaining flits: 121 127 128 129 130 131 147 148 149 150 [...] (41 flits)
Measured flits: 147 148 149 150 151 152 153 154 155 156 [...] (35 flits)
Class 0:
Remaining flits: 121 127 128 129 130 131 147 148 149 150 [...] (41 flits)
Measured flits: 147 148 149 150 151 152 153 154 155 156 [...] (35 flits)
Class 0:
Remaining flits: 121 127 128 129 130 131 147 148 149 150 [...] (41 flits)
Measured flits: 147 148 149 150 151 152 153 154 155 156 [...] (35 flits)
Class 0:
Remaining flits: 121 127 128 129 130 131 147 148 149 150 [...] (41 flits)
Measured flits: 147 148 149 150 151 152 153 154 155 156 [...] (35 flits)
Class 0:
Remaining flits: 121 127 128 129 130 131 147 148 149 150 [...] (41 flits)
Measured flits: 147 148 149 150 151 152 153 154 155 156 [...] (35 flits)
Class 0:
Remaining flits: 121 127 128 129 130 131 147 148 149 150 [...] (41 flits)
Measured flits: 147 148 149 150 151 152 153 154 155 156 [...] (35 flits)
Class 0:
Remaining flits: 121 127 128 129 130 131 147 148 149 150 [...] (41 flits)
Measured flits: 147 148 149 150 151 152 153 154 155 156 [...] (35 flits)
Class 0:
Remaining flits: 121 127 128 129 130 131 147 148 149 150 [...] (41 flits)
Measured flits: 147 148 149 150 151 152 153 154 155 156 [...] (35 flits)
Class 0:
Remaining flits: 121 127 128 129 130 131 147 148 149 150 [...] (41 flits)
Measured flits: 147 148 149 150 151 152 153 154 155 156 [...] (35 flits)
Class 0:
Remaining flits: 121 127 128 129 130 131 147 148 149 150 [...] (41 flits)
Measured flits: 147 148 149 150 151 152 153 154 155 156 [...] (35 flits)
Class 0:
Remaining flits: 121 127 128 129 130 131 147 148 149 150 [...] (41 flits)
Measured flits: 147 148 149 150 151 152 153 154 155 156 [...] (35 flits)
Class 0:
Remaining flits: 121 127 128 129 130 131 147 148 149 150 [...] (41 flits)
Measured flits: 147 148 149 150 151 152 153 154 155 156 [...] (35 flits)
Class 0:
Remaining flits: 121 127 128 129 130 131 147 148 149 150 [...] (41 flits)
Measured flits: 147 148 149 150 151 152 153 154 155 156 [...] (35 flits)
Class 0:
Remaining flits: 121 127 128 129 130 131 147 148 149 150 [...] (41 flits)
Measured flits: 147 148 149 150 151 152 153 154 155 156 [...] (35 flits)
Class 0:
Remaining flits: 121 127 128 129 130 131 147 148 149 150 [...] (41 flits)
Measured flits: 147 148 149 150 151 152 153 154 155 156 [...] (35 flits)
Class 0:
Remaining flits: 121 127 128 129 130 131 147 148 149 150 [...] (41 flits)
Measured flits: 147 148 149 150 151 152 153 154 155 156 [...] (35 flits)
Class 0:
Remaining flits: 121 127 128 129 130 131 147 148 149 150 [...] (41 flits)
Measured flits: 147 148 149 150 151 152 153 154 155 156 [...] (35 flits)
Class 0:
Remaining flits: 121 127 128 129 130 131 147 148 149 150 [...] (41 flits)
Measured flits: 147 148 149 150 151 152 153 154 155 156 [...] (35 flits)
Class 0:
Remaining flits: 121 127 128 129 130 131 147 148 149 150 [...] (41 flits)
Measured flits: 147 148 149 150 151 152 153 154 155 156 [...] (35 flits)
Class 0:
Remaining flits: 121 127 128 129 130 131 147 148 149 150 [...] (41 flits)
Measured flits: 147 148 149 150 151 152 153 154 155 156 [...] (35 flits)
Class 0:
Remaining flits: 121 127 128 129 130 131 147 148 149 150 [...] (41 flits)
Measured flits: 147 148 149 150 151 152 153 154 155 156 [...] (35 flits)
Time taken is 651000 cycles
====== Traffic class 0 ======

Total number of flits generated = 422, changed lanes = 0
Overall minimum packet latency = 299 (1 samples)
Overall average packet latency = 148533 (1 samples)
Overall maximum packet latency = 491714 (1 samples)
Overall minimum network latency = 92 (1 samples)
Overall average network latency = 135154 (1 samples)
Overall maximum network latency = 491714 (1 samples)
Overall minimum flit latency = 30 (1 samples)
Overall average flit latency = 184285 (1 samples)
Overall maximum flit latency = 649359 (1 samples)
Overall minimum fragmentation = 4 (1 samples)
Overall average fragmentation = 10910.2 (1 samples)
Overall maximum fragmentation = 475130 (1 samples)
Overall minimum injected packet rate = 0 (1 samples)
Overall average injected packet rate = 1.625e-06 (1 samples)
Overall maximum injected packet rate = 5.6e-05 (1 samples)
Overall minimum accepted packet rate = 0 (1 samples)
Overall average accepted packet rate = 9.375e-07 (1 samples)
Overall maximum accepted packet rate = 5.2e-05 (1 samples)
Overall minimum injected flit rate = 0 (1 samples)
Overall average injected flit rate = 7.84375e-06 (1 samples)
Overall maximum injected flit rate = 0.000278 (1 samples)
Overall minimum accepted flit rate = 0 (1 samples)
Overall average accepted flit rate = 4.8125e-06 (1 samples)
Overall maximum accepted flit rate = 0.00026 (1 samples)
Overall average injected packet size = 4.82692 (1 samples)
Overall average accepted packet size = 5.13333 (1 samples)
Overall average hops = 7.02083 (1 samples)
Overall throughput of the network (flits/cycle) = 0.000762
Overall throughput of the network (packets/cycle) = 0.000154
Overall workload runtime = 500000 (1 samples)

The distribution of the source packets of size 1 is: 

Source [0] = 0
Source [1] = 0
Source [2] = 1
Source [3] = 0
Source [4] = 0
Source [5] = 0
Source [6] = 0
Source [7] = 0
Source [8] = 0
Source [9] = 0
Source [10] = 0
Source [11] = 0
Source [12] = 0
Source [13] = 0
Source [14] = 0
Source [15] = 0
Source [16] = 0
Source [17] = 0
Source [18] = 0
Source [19] = 0
Source [20] = 0
Source [21] = 0
Source [22] = 0
Source [23] = 0
Source [24] = 0
Source [25] = 0
Source [26] = 0
Source [27] = 0
Source [28] = 0
Source [29] = 0
Source [30] = 0
Source [31] = 0
Source [32] = 0
Source [33] = 0
Source [34] = 0
Source [35] = 0
Source [36] = 0
Source [37] = 0
Source [38] = 0
Source [39] = 0
Source [40] = 0
Source [41] = 0
Source [42] = 0
Source [43] = 0
Source [44] = 0
Source [45] = 0
Source [46] = 0
Source [47] = 0
Source [48] = 0
Source [49] = 0
Source [50] = 0
Source [51] = 0
Source [52] = 0
Source [53] = 0
Source [54] = 0
Source [55] = 0
Source [56] = 0
Source [57] = 0
Source [58] = 0
Source [59] = 0
Source [60] = 0
Source [61] = 1
Source [62] = 0
Source [63] = 0
The distribution of the source packets of size 5 is: 

Source [0] = 0
Source [1] = 0
Source [2] = 1
Source [3] = 0
Source [4] = 0
Source [5] = 0
Source [6] = 0
Source [7] = 0
Source [8] = 0
Source [9] = 0
Source [10] = 0
Source [11] = 0
Source [12] = 0
Source [13] = 0
Source [14] = 0
Source [15] = 0
Source [16] = 0
Source [17] = 0
Source [18] = 0
Source [19] = 0
Source [20] = 0
Source [21] = 0
Source [22] = 0
Source [23] = 0
Source [24] = 0
Source [25] = 0
Source [26] = 0
Source [27] = 0
Source [28] = 0
Source [29] = 0
Source [30] = 0
Source [31] = 5
Source [32] = 0
Source [33] = 4
Source [34] = 0
Source [35] = 4
Source [36] = 0
Source [37] = 2
Source [38] = 0
Source [39] = 4
Source [40] = 11
Source [41] = 1
Source [42] = 4
Source [43] = 28
Source [44] = 2
Source [45] = 2
Source [46] = 2
Source [47] = 2
Source [48] = 3
Source [49] = 1
Source [50] = 3
Source [51] = 0
Source [52] = 0
Source [53] = 0
Source [54] = 4
Source [55] = 1
Source [56] = 0
Source [57] = 0
Source [58] = 0
Source [59] = 0
Source [60] = 0
Source [61] = 0
Source [62] = 0
Source [63] = 0
The distribution of the dest packets of size 1 is: 

dest [0] = 0
dest [1] = 0
dest [2] = 0
dest [3] = 0
dest [4] = 0
dest [5] = 0
dest [6] = 0
dest [7] = 0
dest [8] = 0
dest [9] = 0
dest [10] = 0
dest [11] = 0
dest [12] = 0
dest [13] = 0
dest [14] = 0
dest [15] = 0
dest [16] = 0
dest [17] = 0
dest [18] = 0
dest [19] = 0
dest [20] = 0
dest [21] = 0
dest [22] = 0
dest [23] = 0
dest [24] = 0
dest [25] = 0
dest [26] = 0
dest [27] = 0
dest [28] = 0
dest [29] = 0
dest [30] = 0
dest [31] = 1
dest [32] = 0
dest [33] = 0
dest [34] = 0
dest [35] = 0
dest [36] = 0
dest [37] = 0
dest [38] = 0
dest [39] = 1
dest [40] = 0
dest [41] = 0
dest [42] = 0
dest [43] = 0
dest [44] = 0
dest [45] = 0
dest [46] = 0
dest [47] = 0
dest [48] = 0
dest [49] = 0
dest [50] = 0
dest [51] = 0
dest [52] = 0
dest [53] = 0
dest [54] = 0
dest [55] = 0
dest [56] = 0
dest [57] = 0
dest [58] = 0
dest [59] = 0
dest [60] = 0
dest [61] = 0
dest [62] = 0
dest [63] = 0
The distribution of the dest packets of size 5 is: 

dest [0] = 0
dest [1] = 0
dest [2] = 15
dest [3] = 0
dest [4] = 0
dest [5] = 6
dest [6] = 0
dest [7] = 0
dest [8] = 0
dest [9] = 0
dest [10] = 0
dest [11] = 0
dest [12] = 0
dest [13] = 0
dest [14] = 0
dest [15] = 0
dest [16] = 7
dest [17] = 0
dest [18] = 0
dest [19] = 0
dest [20] = 0
dest [21] = 0
dest [22] = 0
dest [23] = 32
dest [24] = 0
dest [25] = 0
dest [26] = 0
dest [27] = 0
dest [28] = 0
dest [29] = 0
dest [30] = 0
dest [31] = 1
dest [32] = 0
dest [33] = 0
dest [34] = 0
dest [35] = 0
dest [36] = 0
dest [37] = 0
dest [38] = 0
dest [39] = 0
dest [40] = 2
dest [41] = 0
dest [42] = 0
dest [43] = 0
dest [44] = 0
dest [45] = 0
dest [46] = 0
dest [47] = 4
dest [48] = 0
dest [49] = 0
dest [50] = 0
dest [51] = 0
dest [52] = 0
dest [53] = 0
dest [54] = 0
dest [55] = 0
dest [56] = 0
dest [57] = 0
dest [58] = 6
dest [59] = 0
dest [60] = 0
dest [61] = 11
dest [62] = 0
dest [63] = 0Total run time 4917.68
