make: Nothing to be done for 'all'.
Master: Running timer....
Master: Running SRC....
BEGIN Configuration File: ./examples/mesh88_lat_blackscholes
// $Id$
// 168 out of 208
topology = mesh;
k = 8;
n = 2;

// Routing
routing_function = dor;

// Flow control
num_vcs     = 1;
vc_buf_size = 4;
wait_for_tail_credit = 1;

// Router architecture
vc_allocator = islip;
sw_allocator = islip;
alloc_iters  = 1;

credit_delay   = 1;
routing_delay  = 1;
vc_alloc_delay = 1;
sw_alloc_delay = 1;

input_speedup     = 1;
output_speedup    = 1;
internal_speedup  = 1.0;

vc_busy_when_full = 0;

// Traffic
workload=netrace({/home/sarab/Downloads/BookSim_Benchmark_files/swaptions_64c_simlarge.tra.bz2,100000000,1,2,1,1,0);

// Simulation
sim_type = workload;

END Configuration File: ./examples/mesh88_lat_blackscholes
Warming up...
===== Time: 50000 =====
Class 0:
Packets read from trace = 297 of 100000000 (0%)
Future packets = 1
Waiting packets = 0
Stalled packets = 284
Packets pending injection = 3
Packets in flight = 5
Minimum packet latency = 50
Average packet latency = 1309.25
Maximum packet latency = 5049
Minimum network latency = 50
Average network latency = 1309
Maximum network latency = 5049
Slowest packet = 4
Minimum flit latency = 50
Average flit latency = 1144.12
Maximum flit latency = 5042
Slowest flit = 12
Minimum fragmentation = 0
Average fragmentation = 1248.5
Maximum fragmentation = 4994
Minimum injected packet rate = 0 (at node 0)
Average injected packet rate = 2.8125e-06
Maximum injected packet rate = 8e-05 (at node 50)
Minimum accepted packet rate = 0 (at node 0)
Average accepted packet rate = 1.25e-06
Maximum accepted packet rate = 2e-05 (at node 2)
Minimum injected flit rate = 0 (at node 0)
Average injected flit rate = 1e-05
Maximum injected flit rate = 0.0003 (at node 50)
Minimum accepted flit rate = 0 (at node 0)
Average accepted flit rate = 5.3125e-06
Maximum accepted flit rate = 0.00014 (at node 16)
Total number of injected packets = 9
Total number of injected flits = 32
Average injected packet length = 3.55556
Total number of accepted packets = 4
Total number of accepted flits = 17
Average accepted packet length = 4.25
Total in-flight flits = 16 (0 measured)
===== Time: 100000 =====
Class 0:
Packets read from trace = 647 of 100000000 (0%)
Future packets = 1
Waiting packets = 0
Stalled packets = 632
Packets pending injection = 3
Packets in flight = 6
Minimum packet latency = 50
Average packet latency = 10478.2
Maximum packet latency = 47154
Minimum network latency = 50
Average network latency = 10478
Maximum network latency = 47154
Slowest packet = 5
Minimum flit latency = 50
Average flit latency = 8044.5
Maximum flit latency = 47149
Slowest flit = 16
Minimum fragmentation = 0
Average fragmentation = 9575
Maximum fragmentation = 42881
Minimum injected packet rate = 0 (at node 0)
Average injected packet rate = 1.71875e-06
Maximum injected packet rate = 4e-05 (at node 50)
Minimum accepted packet rate = 0 (at node 0)
Average accepted packet rate = 7.8125e-07
Maximum accepted packet rate = 2e-05 (at node 16)
Minimum injected flit rate = 0 (at node 0)
Average injected flit rate = 6.5625e-06
Maximum injected flit rate = 0.00015 (at node 50)
Minimum accepted flit rate = 0 (at node 0)
Average accepted flit rate = 3.125e-06
Maximum accepted flit rate = 0.0001 (at node 16)
Total number of injected packets = 11
Total number of injected flits = 42
Average injected packet length = 3.81818
Total number of accepted packets = 5
Total number of accepted flits = 20
Average accepted packet length = 4
Total in-flight flits = 23 (0 measured)
===== Time: 150000 =====
Class 0:
Packets read from trace = 1575 of 100000000 (0%)
Future packets = 1
Waiting packets = 0
Stalled packets = 1549
Packets pending injection = 5
Packets in flight = 11
Minimum packet latency = 29
Average packet latency = 26363.4
Maximum packet latency = 109976
Minimum network latency = 29
Average network latency = 26363.2
Maximum network latency = 109976
Slowest packet = 3
Minimum flit latency = 23
Average flit latency = 18010.5
Maximum flit latency = 109969
Slowest flit = 6
Minimum fragmentation = 0
Average fragmentation = 25831.9
Maximum fragmentation = 109887
Minimum injected packet rate = 0 (at node 1)
Average injected packet rate = 1.97917e-06
Maximum injected packet rate = 2.66667e-05 (at node 50)
Minimum accepted packet rate = 0 (at node 0)
Average accepted packet rate = 9.375e-07
Maximum accepted packet rate = 1.33333e-05 (at node 2)
Minimum injected flit rate = 0 (at node 1)
Average injected flit rate = 7.29167e-06
Maximum injected flit rate = 0.0001 (at node 50)
Minimum accepted flit rate = 0 (at node 0)
Average accepted flit rate = 4.16667e-06
Maximum accepted flit rate = 6.66667e-05 (at node 2)
Total number of injected packets = 19
Total number of injected flits = 70
Average injected packet length = 3.68421
Total number of accepted packets = 9
Total number of accepted flits = 40
Average accepted packet length = 4.44444
Total in-flight flits = 36 (0 measured)
Warmup ends after 150000 cycles.
Beginning measurements...
===== Time: 200000 =====
Class 0:
Packets read from trace = 2346 of 100000000 (0%)
Future packets = 1
Waiting packets = 0
Stalled packets = 2311
Packets pending injection = 9
Packets in flight = 12
Minimum packet latency = nan
Average packet latency = -nan
Maximum packet latency = -nan
Minimum network latency = nan
Average network latency = -nan
Maximum network latency = -nan
Slowest packet = -1
Minimum flit latency = 24
Average flit latency = 37853.3
Maximum flit latency = 141538
Slowest flit = 37
Minimum fragmentation = nan
Average fragmentation = -nan
Maximum fragmentation = -nan
Minimum injected packet rate = 0 (at node 1)
Average injected packet rate = 1.5625e-06
Maximum injected packet rate = 4e-05 (at node 59)
Minimum accepted packet rate = 0 (at node 0)
Average accepted packet rate = 1.25e-06
Maximum accepted packet rate = 2e-05 (at node 2)
Minimum injected flit rate = 0 (at node 1)
Average injected flit rate = 6.25e-06
Maximum injected flit rate = 0.00018 (at node 59)
Minimum accepted flit rate = 0 (at node 0)
Average accepted flit rate = 4.6875e-06
Maximum accepted flit rate = 0.0001 (at node 2)
Total number of injected packets = 5
Total number of injected flits = 20
Average injected packet length = 4
Total number of accepted packets = 4
Total number of accepted flits = 15
Average accepted packet length = 3.75
Total in-flight flits = 42 (13 measured)
===== Time: 250000 =====
Class 0:
Packets read from trace = 2914 of 100000000 (0%)
Future packets = 1
Waiting packets = 0
Stalled packets = 2878
Packets pending injection = 10
Packets in flight = 12
Minimum packet latency = nan
Average packet latency = -nan
Maximum packet latency = -nan
Minimum network latency = nan
Average network latency = -nan
Maximum network latency = -nan
Slowest packet = -1
Minimum flit latency = 24
Average flit latency = 37853.3
Maximum flit latency = 141538
Slowest flit = 37
Minimum fragmentation = nan
Average fragmentation = -nan
Maximum fragmentation = -nan
Minimum injected packet rate = 0 (at node 1)
Average injected packet rate = 7.8125e-07
Maximum injected packet rate = 2e-05 (at node 59)
Minimum accepted packet rate = 0 (at node 0)
Average accepted packet rate = 6.25e-07
Maximum accepted packet rate = 1e-05 (at node 2)
Minimum injected flit rate = 0 (at node 1)
Average injected flit rate = 3.125e-06
Maximum injected flit rate = 9e-05 (at node 59)
Minimum accepted flit rate = 0 (at node 0)
Average accepted flit rate = 2.34375e-06
Maximum accepted flit rate = 5e-05 (at node 2)
Total number of injected packets = 5
Total number of injected flits = 20
Average injected packet length = 4
Total number of accepted packets = 4
Total number of accepted flits = 15
Average accepted packet length = 3.75
Total in-flight flits = 42 (13 measured)
===== Time: 300000 =====
Class 0:
Packets read from trace = 3752 of 100000000 (0%)
Future packets = 1
Waiting packets = 0
Stalled packets = 3701
Packets pending injection = 22
Packets in flight = 15
Minimum packet latency = nan
Average packet latency = -nan
Maximum packet latency = -nan
Minimum network latency = nan
Average network latency = -nan
Maximum network latency = -nan
Slowest packet = -1
Minimum flit latency = 24
Average flit latency = 31549.4
Maximum flit latency = 141538
Slowest flit = 37
Minimum fragmentation = nan
Average fragmentation = -nan
Maximum fragmentation = -nan
Minimum injected packet rate = 0 (at node 1)
Average injected packet rate = 8.33333e-07
Maximum injected packet rate = 1.33333e-05 (at node 59)
Minimum accepted packet rate = 0 (at node 0)
Average accepted packet rate = 4.16667e-07
Maximum accepted packet rate = 6.66667e-06 (at node 2)
Minimum injected flit rate = 0 (at node 1)
Average injected flit rate = 3.64583e-06
Maximum injected flit rate = 6e-05 (at node 59)
Minimum accepted flit rate = 0 (at node 0)
Average accepted flit rate = 1.875e-06
Maximum accepted flit rate = 3.33333e-05 (at node 2)
Total number of injected packets = 8
Total number of injected flits = 35
Average injected packet length = 4.375
Total number of accepted packets = 4
Total number of accepted flits = 18
Average accepted packet length = 4.5
Total in-flight flits = 54 (25 measured)
===== Time: 350000 =====
Class 0:
Packets read from trace = 4693 of 100000000 (0%)
Future packets = 1
Waiting packets = 0
Stalled packets = 4627
Packets pending injection = 29
Packets in flight = 21
Minimum packet latency = 74
Average packet latency = 24087
Maximum packet latency = 48100
Minimum network latency = 74
Average network latency = 24087
Maximum network latency = 48100
Slowest packet = 27
Minimum flit latency = 24
Average flit latency = 50644
Maximum flit latency = 335532
Slowest flit = 18
Minimum fragmentation = 8
Average fragmentation = 24037
Maximum fragmentation = 48066
Minimum injected packet rate = 0 (at node 1)
Average injected packet rate = 1.25e-06
Maximum injected packet rate = 1e-05 (at node 55)
Minimum accepted packet rate = 0 (at node 0)
Average accepted packet rate = 4.6875e-07
Maximum accepted packet rate = 5e-06 (at node 2)
Minimum injected flit rate = 0 (at node 1)
Average injected flit rate = 5.70312e-06
Maximum injected flit rate = 4.5e-05 (at node 59)
Minimum accepted flit rate = 0 (at node 0)
Average accepted flit rate = 2.57812e-06
Maximum accepted flit rate = 4e-05 (at node 16)
Total number of injected packets = 16
Total number of injected flits = 73
Average injected packet length = 4.5625
Total number of accepted packets = 6
Total number of accepted flits = 33
Average accepted packet length = 5.5
Total in-flight flits = 79 (53 measured)
===== Time: 400000 =====
Class 0:
Packets read from trace = 4847 of 100000000 (0%)
Future packets = 1
Waiting packets = 0
Stalled packets = 4769
Packets pending injection = 38
Packets in flight = 24
Minimum packet latency = 74
Average packet latency = 24087
Maximum packet latency = 48100
Minimum network latency = 74
Average network latency = 24087
Maximum network latency = 48100
Slowest packet = 27
Minimum flit latency = 24
Average flit latency = 50644
Maximum flit latency = 335532
Slowest flit = 18
Minimum fragmentation = 8
Average fragmentation = 24037
Maximum fragmentation = 48066
Minimum injected packet rate = 0 (at node 1)
Average injected packet rate = 1.1875e-06
Maximum injected packet rate = 1.2e-05 (at node 51)
Minimum accepted packet rate = 0 (at node 0)
Average accepted packet rate = 3.75e-07
Maximum accepted packet rate = 4e-06 (at node 2)
Minimum injected flit rate = 0 (at node 1)
Average injected flit rate = 5.4375e-06
Maximum injected flit rate = 5.6e-05 (at node 51)
Minimum accepted flit rate = 0 (at node 0)
Average accepted flit rate = 2.0625e-06
Maximum accepted flit rate = 3.2e-05 (at node 16)
Total number of injected packets = 19
Total number of injected flits = 87
Average injected packet length = 4.57895
Total number of accepted packets = 6
Total number of accepted flits = 33
Average accepted packet length = 5.5
Total in-flight flits = 94 (68 measured)
===== Time: 450000 =====
Class 0:
Packets read from trace = 5345 of 100000000 (0%)
Future packets = 1
Waiting packets = 0
Stalled packets = 5259
Packets pending injection = 43
Packets in flight = 26
Minimum packet latency = 74
Average packet latency = 24087
Maximum packet latency = 48100
Minimum network latency = 74
Average network latency = 24087
Maximum network latency = 48100
Slowest packet = 27
Minimum flit latency = 24
Average flit latency = 71331.9
Maximum flit latency = 335532
Slowest flit = 18
Minimum fragmentation = 8
Average fragmentation = 24037
Maximum fragmentation = 48066
Minimum injected packet rate = 0 (at node 1)
Average injected packet rate = 1.14583e-06
Maximum injected packet rate = 1e-05 (at node 51)
Minimum accepted packet rate = 0 (at node 0)
Average accepted packet rate = 3.64583e-07
Maximum accepted packet rate = 6.66667e-06 (at node 5)
Minimum injected flit rate = 0 (at node 1)
Average injected flit rate = 5.26042e-06
Maximum injected flit rate = 4.66667e-05 (at node 51)
Minimum accepted flit rate = 0 (at node 0)
Average accepted flit rate = 1.875e-06
Maximum accepted flit rate = 2.66667e-05 (at node 16)
Total number of injected packets = 22
Total number of injected flits = 101
Average injected packet length = 4.59091
Total number of accepted packets = 7
Total number of accepted flits = 36
Average accepted packet length = 5.14286
Total in-flight flits = 106 (83 measured)
===== Time: 500000 =====
Class 0:
Packets read from trace = 5967 of 100000000 (0%)
Future packets = 1
Waiting packets = 0
Stalled packets = 5879
Packets pending injection = 44
Packets in flight = 27
Minimum packet latency = 74
Average packet latency = 24087
Maximum packet latency = 48100
Minimum network latency = 74
Average network latency = 24087
Maximum network latency = 48100
Slowest packet = 27
Minimum flit latency = 24
Average flit latency = 71331.9
Maximum flit latency = 335532
Slowest flit = 18
Minimum fragmentation = 8
Average fragmentation = 24037
Maximum fragmentation = 48066
Minimum injected packet rate = 0 (at node 1)
Average injected packet rate = 1.02679e-06
Maximum injected packet rate = 8.57143e-06 (at node 51)
Minimum accepted packet rate = 0 (at node 0)
Average accepted packet rate = 3.125e-07
Maximum accepted packet rate = 5.71429e-06 (at node 5)
Minimum injected flit rate = 0 (at node 1)
Average injected flit rate = 4.73214e-06
Maximum injected flit rate = 4e-05 (at node 51)
Minimum accepted flit rate = 0 (at node 0)
Average accepted flit rate = 1.60714e-06
Maximum accepted flit rate = 2.28571e-05 (at node 16)
Total number of injected packets = 23
Total number of injected flits = 106
Average injected packet length = 4.6087
Total number of accepted packets = 7
Total number of accepted flits = 36
Average accepted packet length = 5.14286
Total in-flight flits = 111 (88 measured)
===== Time: 550000 =====
Class 0:
Packets read from trace = 6708 of 100000000 (0%)
Future packets = 1
Waiting packets = 0
Stalled packets = 6613
Packets pending injection = 46
Packets in flight = 29
Minimum packet latency = 74
Average packet latency = 150967
Maximum packet latency = 355294
Minimum network latency = 74
Average network latency = 150966
Maximum network latency = 355290
Slowest packet = 20
Minimum flit latency = 24
Average flit latency = 71468.7
Maximum flit latency = 355281
Slowest flit = 80
Minimum fragmentation = 0
Average fragmentation = 83210
Maximum fragmentation = 355262
Minimum injected packet rate = 0 (at node 1)
Average injected packet rate = 1.09375e-06
Maximum injected packet rate = 7.5e-06 (at node 51)
Minimum accepted packet rate = 0 (at node 0)
Average accepted packet rate = 3.90625e-07
Maximum accepted packet rate = 7.5e-06 (at node 2)
Minimum injected flit rate = 0 (at node 1)
Average injected flit rate = 4.96094e-06
Maximum injected flit rate = 3.5e-05 (at node 51)
Minimum accepted flit rate = 0 (at node 0)
Average accepted flit rate = 1.79688e-06
Maximum accepted flit rate = 2.75e-05 (at node 5)
Total number of injected packets = 28
Total number of injected flits = 127
Average injected packet length = 4.53571
Total number of accepted packets = 10
Total number of accepted flits = 46
Average accepted packet length = 4.6
Total in-flight flits = 122 (99 measured)
===== Time: 600000 =====
Class 0:
Packets read from trace = 7186 of 100000000 (0%)
Future packets = 1
Waiting packets = 0
Stalled packets = 7089
Packets pending injection = 48
Packets in flight = 29
Minimum packet latency = 74
Average packet latency = 150967
Maximum packet latency = 355294
Minimum network latency = 74
Average network latency = 150966
Maximum network latency = 355290
Slowest packet = 20
Minimum flit latency = 24
Average flit latency = 71468.7
Maximum flit latency = 355281
Slowest flit = 80
Minimum fragmentation = 0
Average fragmentation = 83210
Maximum fragmentation = 355262
Minimum injected packet rate = 0 (at node 1)
Average injected packet rate = 9.72222e-07
Maximum injected packet rate = 6.66667e-06 (at node 51)
Minimum accepted packet rate = 0 (at node 0)
Average accepted packet rate = 3.47222e-07
Maximum accepted packet rate = 6.66667e-06 (at node 2)
Minimum injected flit rate = 0 (at node 1)
Average injected flit rate = 4.40972e-06
Maximum injected flit rate = 3.11111e-05 (at node 51)
Minimum accepted flit rate = 0 (at node 0)
Average accepted flit rate = 1.59722e-06
Maximum accepted flit rate = 2.44444e-05 (at node 5)
Total number of injected packets = 28
Total number of injected flits = 127
Average injected packet length = 4.53571
Total number of accepted packets = 10
Total number of accepted flits = 46
Average accepted packet length = 4.6
Total in-flight flits = 122 (99 measured)
===== Time: 650000 =====
Class 0:
Packets read from trace = 8005 of 100000000 (0%)
Future packets = 1
Waiting packets = 0
Stalled packets = 7897
Packets pending injection = 59
Packets in flight = 29
Minimum packet latency = 74
Average packet latency = 150967
Maximum packet latency = 355294
Minimum network latency = 74
Average network latency = 150966
Maximum network latency = 355290
Slowest packet = 20
Minimum flit latency = 24
Average flit latency = 71468.7
Maximum flit latency = 355281
Slowest flit = 80
Minimum fragmentation = 0
Average fragmentation = 83210
Maximum fragmentation = 355262
Minimum injected packet rate = 0 (at node 1)
Average injected packet rate = 8.75e-07
Maximum injected packet rate = 6e-06 (at node 51)
Minimum accepted packet rate = 0 (at node 0)
Average accepted packet rate = 3.125e-07
Maximum accepted packet rate = 6e-06 (at node 2)
Minimum injected flit rate = 0 (at node 1)
Average injected flit rate = 3.96875e-06
Maximum injected flit rate = 2.8e-05 (at node 51)
Minimum accepted flit rate = 0 (at node 0)
Average accepted flit rate = 1.4375e-06
Maximum accepted flit rate = 2.2e-05 (at node 5)
Total number of injected packets = 28
Total number of injected flits = 127
Average injected packet length = 4.53571
Total number of accepted packets = 10
Total number of accepted flits = 46
Average accepted packet length = 4.6
Total in-flight flits = 122 (99 measured)
Completed measurements after 650000 cycles.
Draining remaining packets ...
Class 0:
Remaining flits: 21 22 23 24 25 26 27 38 39 40 [...] (122 flits)
Measured flits: 85 87 88 89 90 91 92 93 94 95 [...] (99 flits)
Class 0:
Remaining flits: 21 22 23 24 25 26 27 38 39 40 [...] (120 flits)
Measured flits: 85 87 88 89 90 91 92 93 94 95 [...] (97 flits)
Class 0:
Remaining flits: 22 23 24 25 26 27 38 39 40 41 [...] (112 flits)
Measured flits: 85 87 88 89 90 91 92 93 94 95 [...] (90 flits)
Class 0:
Remaining flits: 23 24 25 26 27 38 39 40 41 42 [...] (108 flits)
Measured flits: 85 87 88 89 90 91 92 93 94 95 [...] (87 flits)
Class 0:
Remaining flits: 23 24 25 26 27 38 39 40 41 42 [...] (107 flits)
Measured flits: 87 88 89 90 91 92 93 94 95 96 [...] (86 flits)
Class 0:
Remaining flits: 23 24 25 26 27 43 44 45 46 47 [...] (93 flits)
Measured flits: 87 88 89 90 91 92 93 94 95 96 [...] (77 flits)
Class 0:
Remaining flits: 23 24 25 26 27 43 44 45 46 47 [...] (90 flits)
Measured flits: 87 88 89 90 91 92 93 94 95 96 [...] (74 flits)
Class 0:
Remaining flits: 27 43 44 45 46 47 60 66 67 68 [...] (78 flits)
Measured flits: 87 88 89 90 91 92 93 94 95 96 [...] (66 flits)
Class 0:
Remaining flits: 43 44 45 46 47 60 66 67 68 69 [...] (73 flits)
Measured flits: 87 88 89 90 91 92 93 94 95 96 [...] (62 flits)
Class 0:
Remaining flits: 47 60 66 67 68 69 70 87 88 89 [...] (62 flits)
Measured flits: 87 88 89 90 91 92 93 94 95 96 [...] (55 flits)
Class 0:
Remaining flits: 60 66 67 68 69 70 87 88 89 90 [...] (60 flits)
Measured flits: 87 88 89 90 91 92 93 94 95 96 [...] (54 flits)
Class 0:
Remaining flits: 60 66 67 68 69 70 89 90 91 92 [...] (58 flits)
Measured flits: 89 90 91 92 93 94 95 96 112 113 [...] (52 flits)
Class 0:
Remaining flits: 60 92 93 94 95 96 112 113 114 115 [...] (50 flits)
Measured flits: 92 93 94 95 96 112 113 114 115 116 [...] (49 flits)
Class 0:
Remaining flits: 60 92 93 94 95 96 112 113 114 115 [...] (50 flits)
Measured flits: 92 93 94 95 96 112 113 114 115 116 [...] (49 flits)
Class 0:
Remaining flits: 60 92 93 94 95 96 112 113 114 115 [...] (47 flits)
Measured flits: 92 93 94 95 96 112 113 114 115 116 [...] (46 flits)
Class 0:
Remaining flits: 60 92 93 94 95 96 112 113 114 115 [...] (45 flits)
Measured flits: 92 93 94 95 96 112 113 114 115 116 [...] (44 flits)
Class 0:
Remaining flits: 60 92 93 94 95 96 112 113 114 115 [...] (44 flits)
Measured flits: 92 93 94 95 96 112 113 114 115 116 [...] (43 flits)
Class 0:
Remaining flits: 60 92 93 94 95 96 112 113 114 115 [...] (40 flits)
Measured flits: 92 93 94 95 96 112 113 114 115 116 [...] (39 flits)
Class 0:
Remaining flits: 60 92 93 94 95 96 112 113 114 115 [...] (40 flits)
Measured flits: 92 93 94 95 96 112 113 114 115 116 [...] (39 flits)
Class 0:
Remaining flits: 60 92 93 94 95 96 112 113 114 115 [...] (40 flits)
Measured flits: 92 93 94 95 96 112 113 114 115 116 [...] (39 flits)
Class 0:
Remaining flits: 60 92 93 94 95 96 112 113 114 115 [...] (40 flits)
Measured flits: 92 93 94 95 96 112 113 114 115 116 [...] (39 flits)
Class 0:
Remaining flits: 60 92 93 94 95 96 112 113 114 115 [...] (40 flits)
Measured flits: 92 93 94 95 96 112 113 114 115 116 [...] (39 flits)
Class 0:
Remaining flits: 60 92 93 94 95 96 112 113 114 115 [...] (40 flits)
Measured flits: 92 93 94 95 96 112 113 114 115 116 [...] (39 flits)
Class 0:
Remaining flits: 60 92 93 94 95 96 112 113 114 115 [...] (40 flits)
Measured flits: 92 93 94 95 96 112 113 114 115 116 [...] (39 flits)
Class 0:
Remaining flits: 60 92 93 94 95 96 112 113 114 115 [...] (40 flits)
Measured flits: 92 93 94 95 96 112 113 114 115 116 [...] (39 flits)
Class 0:
Remaining flits: 60 92 93 94 95 96 112 113 114 115 [...] (40 flits)
Measured flits: 92 93 94 95 96 112 113 114 115 116 [...] (39 flits)
Class 0:
Remaining flits: 60 92 93 94 95 96 112 113 114 115 [...] (40 flits)
Measured flits: 92 93 94 95 96 112 113 114 115 116 [...] (39 flits)
Class 0:
Remaining flits: 60 92 93 94 95 96 112 113 114 115 [...] (40 flits)
Measured flits: 92 93 94 95 96 112 113 114 115 116 [...] (39 flits)
Class 0:
Remaining flits: 60 92 93 94 95 96 112 113 114 115 [...] (40 flits)
Measured flits: 92 93 94 95 96 112 113 114 115 116 [...] (39 flits)
Class 0:
Remaining flits: 60 92 93 94 95 96 112 113 114 115 [...] (40 flits)
Measured flits: 92 93 94 95 96 112 113 114 115 116 [...] (39 flits)
Class 0:
Remaining flits: 60 92 93 94 95 96 112 113 114 115 [...] (40 flits)
Measured flits: 92 93 94 95 96 112 113 114 115 116 [...] (39 flits)
Class 0:
Remaining flits: 60 92 93 94 95 96 112 113 114 115 [...] (40 flits)
Measured flits: 92 93 94 95 96 112 113 114 115 116 [...] (39 flits)
Class 0:
Remaining flits: 60 92 93 94 95 96 112 113 114 115 [...] (40 flits)
Measured flits: 92 93 94 95 96 112 113 114 115 116 [...] (39 flits)
Class 0:
Remaining flits: 60 92 93 94 95 96 112 113 114 115 [...] (40 flits)
Measured flits: 92 93 94 95 96 112 113 114 115 116 [...] (39 flits)
Class 0:
Remaining flits: 60 92 93 94 95 96 112 113 114 115 [...] (40 flits)
Measured flits: 92 93 94 95 96 112 113 114 115 116 [...] (39 flits)
Class 0:
Remaining flits: 60 92 93 94 95 96 112 113 114 115 [...] (40 flits)
Measured flits: 92 93 94 95 96 112 113 114 115 116 [...] (39 flits)
Class 0:
Remaining flits: 60 92 93 94 95 96 112 113 114 115 [...] (40 flits)
Measured flits: 92 93 94 95 96 112 113 114 115 116 [...] (39 flits)
Class 0:
Remaining flits: 60 92 93 94 95 96 112 113 114 115 [...] (40 flits)
Measured flits: 92 93 94 95 96 112 113 114 115 116 [...] (39 flits)
Class 0:
Remaining flits: 60 92 93 94 95 96 112 113 114 115 [...] (40 flits)
Measured flits: 92 93 94 95 96 112 113 114 115 116 [...] (39 flits)
Class 0:
Remaining flits: 60 92 93 94 95 96 112 113 114 115 [...] (40 flits)
Measured flits: 92 93 94 95 96 112 113 114 115 116 [...] (39 flits)
Class 0:
Remaining flits: 60 92 93 94 95 96 112 113 114 115 [...] (40 flits)
Measured flits: 92 93 94 95 96 112 113 114 115 116 [...] (39 flits)
Class 0:
Remaining flits: 60 92 93 94 95 96 112 113 114 115 [...] (40 flits)
Measured flits: 92 93 94 95 96 112 113 114 115 116 [...] (39 flits)
Class 0:
Remaining flits: 60 92 93 94 95 96 112 113 114 115 [...] (40 flits)
Measured flits: 92 93 94 95 96 112 113 114 115 116 [...] (39 flits)
Class 0:
Remaining flits: 60 92 93 94 95 96 112 113 114 115 [...] (40 flits)
Measured flits: 92 93 94 95 96 112 113 114 115 116 [...] (39 flits)
Class 0:
Remaining flits: 60 92 93 94 95 96 112 113 114 115 [...] (40 flits)
Measured flits: 92 93 94 95 96 112 113 114 115 116 [...] (39 flits)
Class 0:
Remaining flits: 60 92 93 94 95 96 112 113 114 115 [...] (40 flits)
Measured flits: 92 93 94 95 96 112 113 114 115 116 [...] (39 flits)
Class 0:
Remaining flits: 60 92 93 94 95 96 112 113 114 115 [...] (40 flits)
Measured flits: 92 93 94 95 96 112 113 114 115 116 [...] (39 flits)
Class 0:
Remaining flits: 60 92 93 94 95 96 112 113 114 115 [...] (40 flits)
Measured flits: 92 93 94 95 96 112 113 114 115 116 [...] (39 flits)
Class 0:
Remaining flits: 60 92 93 94 95 96 112 113 114 115 [...] (40 flits)
Measured flits: 92 93 94 95 96 112 113 114 115 116 [...] (39 flits)
Class 0:
Remaining flits: 60 92 93 94 95 96 112 113 114 115 [...] (40 flits)
Measured flits: 92 93 94 95 96 112 113 114 115 116 [...] (39 flits)
Class 0:
Remaining flits: 60 92 93 94 95 96 112 113 114 115 [...] (40 flits)
Measured flits: 92 93 94 95 96 112 113 114 115 116 [...] (39 flits)
Class 0:
Remaining flits: 60 92 93 94 95 96 112 113 114 115 [...] (40 flits)
Measured flits: 92 93 94 95 96 112 113 114 115 116 [...] (39 flits)
Class 0:
Remaining flits: 60 92 93 94 95 96 112 113 114 115 [...] (40 flits)
Measured flits: 92 93 94 95 96 112 113 114 115 116 [...] (39 flits)
Class 0:
Remaining flits: 60 92 93 94 95 96 112 113 114 115 [...] (40 flits)
Measured flits: 92 93 94 95 96 112 113 114 115 116 [...] (39 flits)
Class 0:
Remaining flits: 60 92 93 94 95 96 112 113 114 115 [...] (40 flits)
Measured flits: 92 93 94 95 96 112 113 114 115 116 [...] (39 flits)
Class 0:
Remaining flits: 60 92 93 94 95 96 112 113 114 115 [...] (40 flits)
Measured flits: 92 93 94 95 96 112 113 114 115 116 [...] (39 flits)
Class 0:
Remaining flits: 60 92 93 94 95 96 112 113 114 115 [...] (40 flits)
Measured flits: 92 93 94 95 96 112 113 114 115 116 [...] (39 flits)
Class 0:
Remaining flits: 60 92 93 94 95 96 112 113 114 115 [...] (40 flits)
Measured flits: 92 93 94 95 96 112 113 114 115 116 [...] (39 flits)
Class 0:
Remaining flits: 60 92 93 94 95 96 112 113 114 115 [...] (40 flits)
Measured flits: 92 93 94 95 96 112 113 114 115 116 [...] (39 flits)
Class 0:
Remaining flits: 60 92 93 94 95 96 112 113 114 115 [...] (40 flits)
Measured flits: 92 93 94 95 96 112 113 114 115 116 [...] (39 flits)
Class 0:
Remaining flits: 60 92 93 94 95 96 112 113 114 115 [...] (40 flits)
Measured flits: 92 93 94 95 96 112 113 114 115 116 [...] (39 flits)
Class 0:
Remaining flits: 60 92 93 94 95 96 112 113 114 115 [...] (40 flits)
Measured flits: 92 93 94 95 96 112 113 114 115 116 [...] (39 flits)
Class 0:
Remaining flits: 60 92 93 94 95 96 112 113 114 115 [...] (40 flits)
Measured flits: 92 93 94 95 96 112 113 114 115 116 [...] (39 flits)
Class 0:
Remaining flits: 60 92 93 94 95 96 112 113 114 115 [...] (40 flits)
Measured flits: 92 93 94 95 96 112 113 114 115 116 [...] (39 flits)
Class 0:
Remaining flits: 60 92 93 94 95 96 112 113 114 115 [...] (40 flits)
Measured flits: 92 93 94 95 96 112 113 114 115 116 [...] (39 flits)
Class 0:
Remaining flits: 60 92 93 94 95 96 112 113 114 115 [...] (40 flits)
Measured flits: 92 93 94 95 96 112 113 114 115 116 [...] (39 flits)
Class 0:
Remaining flits: 60 92 93 94 95 96 112 113 114 115 [...] (40 flits)
Measured flits: 92 93 94 95 96 112 113 114 115 116 [...] (39 flits)
Class 0:
Remaining flits: 60 92 93 94 95 96 112 113 114 115 [...] (40 flits)
Measured flits: 92 93 94 95 96 112 113 114 115 116 [...] (39 flits)
Class 0:
Remaining flits: 60 92 93 94 95 96 112 113 114 115 [...] (40 flits)
Measured flits: 92 93 94 95 96 112 113 114 115 116 [...] (39 flits)
Class 0:
Remaining flits: 60 92 93 94 95 96 112 113 114 115 [...] (40 flits)
Measured flits: 92 93 94 95 96 112 113 114 115 116 [...] (39 flits)
Class 0:
Remaining flits: 60 92 93 94 95 96 112 113 114 115 [...] (40 flits)
Measured flits: 92 93 94 95 96 112 113 114 115 116 [...] (39 flits)
Class 0:
Remaining flits: 60 92 93 94 95 96 112 113 114 115 [...] (40 flits)
Measured flits: 92 93 94 95 96 112 113 114 115 116 [...] (39 flits)
Class 0:
Remaining flits: 60 92 93 94 95 96 112 113 114 115 [...] (40 flits)
Measured flits: 92 93 94 95 96 112 113 114 115 116 [...] (39 flits)
Class 0:
Remaining flits: 60 92 93 94 95 96 112 113 114 115 [...] (40 flits)
Measured flits: 92 93 94 95 96 112 113 114 115 116 [...] (39 flits)
Class 0:
Remaining flits: 60 92 93 94 95 96 112 113 114 115 [...] (40 flits)
Measured flits: 92 93 94 95 96 112 113 114 115 116 [...] (39 flits)
Class 0:
Remaining flits: 60 92 93 94 95 96 112 113 114 115 [...] (40 flits)
Measured flits: 92 93 94 95 96 112 113 114 115 116 [...] (39 flits)
Class 0:
Remaining flits: 60 92 93 94 95 96 112 113 114 115 [...] (40 flits)
Measured flits: 92 93 94 95 96 112 113 114 115 116 [...] (39 flits)
Class 0:
Remaining flits: 60 92 93 94 95 96 112 113 114 115 [...] (40 flits)
Measured flits: 92 93 94 95 96 112 113 114 115 116 [...] (39 flits)
Class 0:
Remaining flits: 60 92 93 94 95 96 112 113 114 115 [...] (40 flits)
Measured flits: 92 93 94 95 96 112 113 114 115 116 [...] (39 flits)
Class 0:
Remaining flits: 60 92 93 94 95 96 112 113 114 115 [...] (40 flits)
Measured flits: 92 93 94 95 96 112 113 114 115 116 [...] (39 flits)
Class 0:
Remaining flits: 60 92 93 94 95 96 112 113 114 115 [...] (40 flits)
Measured flits: 92 93 94 95 96 112 113 114 115 116 [...] (39 flits)
Class 0:
Remaining flits: 60 92 93 94 95 96 112 113 114 115 [...] (40 flits)
Measured flits: 92 93 94 95 96 112 113 114 115 116 [...] (39 flits)
Class 0:
Remaining flits: 60 92 93 94 95 96 112 113 114 115 [...] (40 flits)
Measured flits: 92 93 94 95 96 112 113 114 115 116 [...] (39 flits)
Class 0:
Remaining flits: 60 92 93 94 95 96 112 113 114 115 [...] (40 flits)
Measured flits: 92 93 94 95 96 112 113 114 115 116 [...] (39 flits)
Class 0:
Remaining flits: 60 92 93 94 95 96 112 113 114 115 [...] (40 flits)
Measured flits: 92 93 94 95 96 112 113 114 115 116 [...] (39 flits)
Class 0:
Remaining flits: 60 92 93 94 95 96 112 113 114 115 [...] (40 flits)
Measured flits: 92 93 94 95 96 112 113 114 115 116 [...] (39 flits)
Class 0:
Remaining flits: 60 92 93 94 95 96 112 113 114 115 [...] (40 flits)
Measured flits: 92 93 94 95 96 112 113 114 115 116 [...] (39 flits)
Class 0:
Remaining flits: 60 92 93 94 95 96 112 113 114 115 [...] (40 flits)
Measured flits: 92 93 94 95 96 112 113 114 115 116 [...] (39 flits)
Class 0:
Remaining flits: 60 92 93 94 95 96 112 113 114 115 [...] (40 flits)
Measured flits: 92 93 94 95 96 112 113 114 115 116 [...] (39 flits)
Class 0:
Remaining flits: 60 92 93 94 95 96 112 113 114 115 [...] (40 flits)
Measured flits: 92 93 94 95 96 112 113 114 115 116 [...] (39 flits)
Class 0:
Remaining flits: 60 92 93 94 95 96 112 113 114 115 [...] (40 flits)
Measured flits: 92 93 94 95 96 112 113 114 115 116 [...] (39 flits)
Class 0:
Remaining flits: 60 92 93 94 95 96 112 113 114 115 [...] (40 flits)
Measured flits: 92 93 94 95 96 112 113 114 115 116 [...] (39 flits)
Class 0:
Remaining flits: 60 92 93 94 95 96 112 113 114 115 [...] (40 flits)
Measured flits: 92 93 94 95 96 112 113 114 115 116 [...] (39 flits)
Class 0:
Remaining flits: 60 92 93 94 95 96 112 113 114 115 [...] (40 flits)
Measured flits: 92 93 94 95 96 112 113 114 115 116 [...] (39 flits)
Class 0:
Remaining flits: 60 92 93 94 95 96 112 113 114 115 [...] (40 flits)
Measured flits: 92 93 94 95 96 112 113 114 115 116 [...] (39 flits)
Class 0:
Remaining flits: 60 92 93 94 95 96 112 113 114 115 [...] (40 flits)
Measured flits: 92 93 94 95 96 112 113 114 115 116 [...] (39 flits)
Class 0:
Remaining flits: 60 92 93 94 95 96 112 113 114 115 [...] (40 flits)
Measured flits: 92 93 94 95 96 112 113 114 115 116 [...] (39 flits)
Class 0:
Remaining flits: 60 92 93 94 95 96 112 113 114 115 [...] (40 flits)
Measured flits: 92 93 94 95 96 112 113 114 115 116 [...] (39 flits)
Class 0:
Remaining flits: 60 92 93 94 95 96 112 113 114 115 [...] (40 flits)
Measured flits: 92 93 94 95 96 112 113 114 115 116 [...] (39 flits)
Class 0:
Remaining flits: 60 92 93 94 95 96 112 113 114 115 [...] (40 flits)
Measured flits: 92 93 94 95 96 112 113 114 115 116 [...] (39 flits)
Class 0:
Remaining flits: 60 92 93 94 95 96 112 113 114 115 [...] (40 flits)
Measured flits: 92 93 94 95 96 112 113 114 115 116 [...] (39 flits)
Time taken is 651000 cycles
====== Traffic class 0 ======

Total number of flits generated = 208, changed lanes = 0
Overall minimum packet latency = 74 (1 samples)
Overall average packet latency = 249002 (1 samples)
Overall maximum packet latency = 463359 (1 samples)
Overall minimum network latency = 74 (1 samples)
Overall average network latency = 249001 (1 samples)
Overall maximum network latency = 463356 (1 samples)
Overall minimum flit latency = 24 (1 samples)
Overall average flit latency = 219703 (1 samples)
Overall maximum flit latency = 639896 (1 samples)
Overall minimum fragmentation = 0 (1 samples)
Overall average fragmentation = 72541.4 (1 samples)
Overall maximum fragmentation = 460612 (1 samples)
Overall minimum injected packet rate = 0 (1 samples)
Overall average injected packet rate = 8.75e-07 (1 samples)
Overall maximum injected packet rate = 6e-06 (1 samples)
Overall minimum accepted packet rate = 0 (1 samples)
Overall average accepted packet rate = 3.125e-07 (1 samples)
Overall maximum accepted packet rate = 6e-06 (1 samples)
Overall minimum injected flit rate = 0 (1 samples)
Overall average injected flit rate = 3.96875e-06 (1 samples)
Overall maximum injected flit rate = 2.8e-05 (1 samples)
Overall minimum accepted flit rate = 0 (1 samples)
Overall average accepted flit rate = 1.4375e-06 (1 samples)
Overall maximum accepted flit rate = 2.2e-05 (1 samples)
Overall average injected packet size = 4.53571 (1 samples)
Overall average accepted packet size = 4.6 (1 samples)
Overall average hops = 7.38889 (1 samples)
Overall throughput of the network (flits/cycle) = 0.000336
Overall throughput of the network (packets/cycle) = 7.4e-05
Overall workload runtime = 500000 (1 samples)

The distribution of the source packets of size 1 is: 

Source [0] = 0
Source [1] = 0
Source [2] = 3
Source [3] = 0
Source [4] = 0
Source [5] = 0
Source [6] = 0
Source [7] = 0
Source [8] = 0
Source [9] = 0
Source [10] = 0
Source [11] = 0
Source [12] = 0
Source [13] = 0
Source [14] = 0
Source [15] = 0
Source [16] = 1
Source [17] = 0
Source [18] = 0
Source [19] = 0
Source [20] = 0
Source [21] = 0
Source [22] = 0
Source [23] = 0
Source [24] = 0
Source [25] = 0
Source [26] = 0
Source [27] = 0
Source [28] = 0
Source [29] = 0
Source [30] = 0
Source [31] = 0
Source [32] = 0
Source [33] = 0
Source [34] = 0
Source [35] = 0
Source [36] = 0
Source [37] = 0
Source [38] = 0
Source [39] = 0
Source [40] = 0
Source [41] = 0
Source [42] = 0
Source [43] = 0
Source [44] = 0
Source [45] = 0
Source [46] = 0
Source [47] = 0
Source [48] = 0
Source [49] = 0
Source [50] = 1
Source [51] = 0
Source [52] = 0
Source [53] = 0
Source [54] = 0
Source [55] = 2
Source [56] = 0
Source [57] = 0
Source [58] = 0
Source [59] = 0
Source [60] = 0
Source [61] = 1
Source [62] = 0
Source [63] = 0
The distribution of the source packets of size 5 is: 

Source [0] = 3
Source [1] = 0
Source [2] = 0
Source [3] = 0
Source [4] = 0
Source [5] = 0
Source [6] = 1
Source [7] = 0
Source [8] = 0
Source [9] = 1
Source [10] = 1
Source [11] = 0
Source [12] = 1
Source [13] = 0
Source [14] = 0
Source [15] = 2
Source [16] = 1
Source [17] = 0
Source [18] = 0
Source [19] = 0
Source [20] = 0
Source [21] = 0
Source [22] = 0
Source [23] = 1
Source [24] = 0
Source [25] = 2
Source [26] = 0
Source [27] = 1
Source [28] = 1
Source [29] = 0
Source [30] = 0
Source [31] = 1
Source [32] = 0
Source [33] = 0
Source [34] = 0
Source [35] = 1
Source [36] = 0
Source [37] = 1
Source [38] = 1
Source [39] = 0
Source [40] = 0
Source [41] = 0
Source [42] = 0
Source [43] = 0
Source [44] = 1
Source [45] = 0
Source [46] = 0
Source [47] = 0
Source [48] = 0
Source [49] = 0
Source [50] = 3
Source [51] = 3
Source [52] = 0
Source [53] = 0
Source [54] = 1
Source [55] = 2
Source [56] = 0
Source [57] = 2
Source [58] = 4
Source [59] = 3
Source [60] = 0
Source [61] = 0
Source [62] = 0
Source [63] = 2
The distribution of the dest packets of size 1 is: 

dest [0] = 0
dest [1] = 0
dest [2] = 2
dest [3] = 0
dest [4] = 0
dest [5] = 0
dest [6] = 0
dest [7] = 0
dest [8] = 0
dest [9] = 0
dest [10] = 0
dest [11] = 0
dest [12] = 0
dest [13] = 0
dest [14] = 0
dest [15] = 0
dest [16] = 0
dest [17] = 0
dest [18] = 0
dest [19] = 0
dest [20] = 0
dest [21] = 0
dest [22] = 0
dest [23] = 0
dest [24] = 0
dest [25] = 0
dest [26] = 0
dest [27] = 0
dest [28] = 0
dest [29] = 0
dest [30] = 0
dest [31] = 0
dest [32] = 0
dest [33] = 0
dest [34] = 0
dest [35] = 0
dest [36] = 0
dest [37] = 0
dest [38] = 0
dest [39] = 0
dest [40] = 0
dest [41] = 0
dest [42] = 0
dest [43] = 0
dest [44] = 0
dest [45] = 0
dest [46] = 0
dest [47] = 0
dest [48] = 0
dest [49] = 0
dest [50] = 1
dest [51] = 0
dest [52] = 0
dest [53] = 0
dest [54] = 0
dest [55] = 3
dest [56] = 0
dest [57] = 0
dest [58] = 1
dest [59] = 0
dest [60] = 0
dest [61] = 1
dest [62] = 0
dest [63] = 0
The distribution of the dest packets of size 5 is: 

dest [0] = 0
dest [1] = 0
dest [2] = 5
dest [3] = 0
dest [4] = 0
dest [5] = 5
dest [6] = 0
dest [7] = 0
dest [8] = 0
dest [9] = 0
dest [10] = 0
dest [11] = 0
dest [12] = 0
dest [13] = 0
dest [14] = 0
dest [15] = 0
dest [16] = 8
dest [17] = 0
dest [18] = 0
dest [19] = 0
dest [20] = 0
dest [21] = 0
dest [22] = 0
dest [23] = 8
dest [24] = 0
dest [25] = 0
dest [26] = 0
dest [27] = 0
dest [28] = 0
dest [29] = 0
dest [30] = 0
dest [31] = 0
dest [32] = 0
dest [33] = 0
dest [34] = 0
dest [35] = 0
dest [36] = 0
dest [37] = 0
dest [38] = 0
dest [39] = 0
dest [40] = 3
dest [41] = 0
dest [42] = 0
dest [43] = 0
dest [44] = 0
dest [45] = 0
dest [46] = 0
dest [47] = 1
dest [48] = 0
dest [49] = 0
dest [50] = 0
dest [51] = 0
dest [52] = 0
dest [53] = 0
dest [54] = 0
dest [55] = 0
dest [56] = 0
dest [57] = 0
dest [58] = 3
dest [59] = 0
dest [60] = 0
dest [61] = 7
dest [62] = 0
dest [63] = 0Total run time 2136.88
