make: Nothing to be done for 'all'.
Master: Running timer....
Master: Running SRC....
BEGIN Configuration File: ./examples/mesh88_lat_blackscholes
// $Id$
//150 out of 323
topology = mesh;
k = 8;
n = 2;

// Routing
routing_function = dor;

// Flow control
num_vcs     = 1;
vc_buf_size = 4;
wait_for_tail_credit = 1;

// Router architecture
vc_allocator = islip;
sw_allocator = islip;
alloc_iters  = 1;

credit_delay   = 1;
routing_delay  = 1;
vc_alloc_delay = 1;
sw_alloc_delay = 1;

input_speedup     = 1;
output_speedup    = 1;
internal_speedup  = 1.0;

vc_busy_when_full = 0;

// Traffic
workload=netrace({/home/sarab/Downloads/BookSim_Benchmark_files/fluidanimate_64c_simsmall.tra.bz2,100000000,1,2,1,1,0);

// Simulation
sim_type = workload;

END Configuration File: ./examples/mesh88_lat_blackscholes
Warming up...
===== Time: 50000 =====
Class 0:
Packets read from trace = 754 of 20989170 (0%)
Future packets = 1
Waiting packets = 1
Stalled packets = 671
Packets pending injection = 44
Packets in flight = 31
Minimum packet latency = 57
Average packet latency = 4529.67
Maximum packet latency = 13911
Minimum network latency = 57
Average network latency = 4529.67
Maximum network latency = 13911
Slowest packet = 3
Minimum flit latency = 29
Average flit latency = 5973.19
Maximum flit latency = 29754
Slowest flit = 53
Minimum fragmentation = 0
Average fragmentation = 4470.5
Maximum fragmentation = 13841
Minimum injected packet rate = 0 (at node 0)
Average injected packet rate = 1.03125e-05
Maximum injected packet rate = 6e-05 (at node 2)
Minimum accepted packet rate = 0 (at node 0)
Average accepted packet rate = 1.875e-06
Maximum accepted packet rate = 4e-05 (at node 38)
Minimum injected flit rate = 0 (at node 0)
Average injected flit rate = 4.625e-05
Maximum injected flit rate = 0.0003 (at node 6)
Minimum accepted flit rate = 0 (at node 0)
Average accepted flit rate = 1.15625e-05
Maximum accepted flit rate = 0.00018 (at node 16)
Total number of injected packets = 33
Total number of injected flits = 148
Average injected packet length = 4.48485
Total number of accepted packets = 6
Total number of accepted flits = 37
Average accepted packet length = 6.16667
Total in-flight flits = 136 (0 measured)
===== Time: 100000 =====
Class 0:
Packets read from trace = 1252 of 20989170 (0%)
Future packets = 1
Waiting packets = 0
Stalled packets = 1142
Packets pending injection = 60
Packets in flight = 40
Minimum packet latency = 57
Average packet latency = 7168.56
Maximum packet latency = 22926
Minimum network latency = 57
Average network latency = 7168.56
Maximum network latency = 22926
Slowest packet = 25
Minimum flit latency = 29
Average flit latency = 5835.2
Maximum flit latency = 29754
Slowest flit = 53
Minimum fragmentation = 0
Average fragmentation = 5122.89
Maximum fragmentation = 17162
Minimum injected packet rate = 0 (at node 0)
Average injected packet rate = 7.03125e-06
Maximum injected packet rate = 3e-05 (at node 2)
Minimum accepted packet rate = 0 (at node 0)
Average accepted packet rate = 1.40625e-06
Maximum accepted packet rate = 2e-05 (at node 23)
Minimum injected flit rate = 0 (at node 0)
Average injected flit rate = 3.1875e-05
Maximum injected flit rate = 0.00015 (at node 6)
Minimum accepted flit rate = 0 (at node 0)
Average accepted flit rate = 9.21875e-06
Maximum accepted flit rate = 0.00014 (at node 23)
Total number of injected packets = 45
Total number of injected flits = 204
Average injected packet length = 4.53333
Total number of accepted packets = 9
Total number of accepted flits = 59
Average accepted packet length = 6.55556
Total in-flight flits = 174 (0 measured)
===== Time: 150000 =====
Class 0:
Packets read from trace = 1340 of 20989170 (0%)
Future packets = 1
Waiting packets = 0
Stalled packets = 1227
Packets pending injection = 62
Packets in flight = 41
Minimum packet latency = 57
Average packet latency = 7168.56
Maximum packet latency = 22926
Minimum network latency = 57
Average network latency = 7168.56
Maximum network latency = 22926
Slowest packet = 25
Minimum flit latency = 29
Average flit latency = 5835.2
Maximum flit latency = 29754
Slowest flit = 53
Minimum fragmentation = 0
Average fragmentation = 5122.89
Maximum fragmentation = 17162
Minimum injected packet rate = 0 (at node 0)
Average injected packet rate = 4.79167e-06
Maximum injected packet rate = 2e-05 (at node 2)
Minimum accepted packet rate = 0 (at node 0)
Average accepted packet rate = 9.375e-07
Maximum accepted packet rate = 1.33333e-05 (at node 23)
Minimum injected flit rate = 0 (at node 0)
Average injected flit rate = 2.17708e-05
Maximum injected flit rate = 0.0001 (at node 6)
Minimum accepted flit rate = 0 (at node 0)
Average accepted flit rate = 6.14583e-06
Maximum accepted flit rate = 9.33333e-05 (at node 23)
Total number of injected packets = 46
Total number of injected flits = 209
Average injected packet length = 4.54348
Total number of accepted packets = 9
Total number of accepted flits = 59
Average accepted packet length = 6.55556
Total in-flight flits = 179 (0 measured)
Warmup ends after 150000 cycles.
Beginning measurements...
===== Time: 200000 =====
Class 0:
Packets read from trace = 1430 of 20989170 (0%)
Future packets = 1
Waiting packets = 0
Stalled packets = 1315
Packets pending injection = 63
Packets in flight = 42
Minimum packet latency = nan
Average packet latency = -nan
Maximum packet latency = -nan
Minimum network latency = nan
Average network latency = -nan
Maximum network latency = -nan
Slowest packet = -1
Minimum flit latency = nan
Average flit latency = -nan
Maximum flit latency = -nan
Slowest flit = -1
Minimum fragmentation = nan
Average fragmentation = -nan
Maximum fragmentation = -nan
Minimum injected packet rate = 0 (at node 0)
Average injected packet rate = 3.125e-07
Maximum injected packet rate = 2e-05 (at node 45)
Minimum accepted packet rate = 0 (at node 0)
Average accepted packet rate = 0
Maximum accepted packet rate = 0 (at node 0)
Minimum injected flit rate = 0 (at node 0)
Average injected flit rate = 1.25e-06
Maximum injected flit rate = 8e-05 (at node 45)
Minimum accepted flit rate = 0 (at node 0)
Average accepted flit rate = 0
Maximum accepted flit rate = 0 (at node 0)
Total number of injected packets = 1
Total number of injected flits = 4
Average injected packet length = 4
Total number of accepted packets = 0
Total number of accepted flits = 0
Average accepted packet length = -nan
Total in-flight flits = 184 (5 measured)
===== Time: 250000 =====
Class 0:
Packets read from trace = 1526 of 20989170 (0%)
Future packets = 1
Waiting packets = 0
Stalled packets = 1408
Packets pending injection = 65
Packets in flight = 43
Minimum packet latency = nan
Average packet latency = -nan
Maximum packet latency = -nan
Minimum network latency = nan
Average network latency = -nan
Maximum network latency = -nan
Slowest packet = -1
Minimum flit latency = nan
Average flit latency = -nan
Maximum flit latency = -nan
Slowest flit = -1
Minimum fragmentation = nan
Average fragmentation = -nan
Maximum fragmentation = -nan
Minimum injected packet rate = 0 (at node 0)
Average injected packet rate = 3.125e-07
Maximum injected packet rate = 1e-05 (at node 16)
Minimum accepted packet rate = 0 (at node 0)
Average accepted packet rate = 0
Maximum accepted packet rate = 0 (at node 0)
Minimum injected flit rate = 0 (at node 0)
Average injected flit rate = 1.40625e-06
Maximum injected flit rate = 5e-05 (at node 16)
Minimum accepted flit rate = 0 (at node 0)
Average accepted flit rate = 0
Maximum accepted flit rate = 0 (at node 0)
Total number of injected packets = 2
Total number of injected flits = 9
Average injected packet length = 4.5
Total number of accepted packets = 0
Total number of accepted flits = 0
Average accepted packet length = -nan
Total in-flight flits = 189 (10 measured)
===== Time: 300000 =====
Class 0:
Packets read from trace = 1614 of 20989170 (0%)
Future packets = 1
Waiting packets = 0
Stalled packets = 1494
Packets pending injection = 67
Packets in flight = 43
Minimum packet latency = nan
Average packet latency = -nan
Maximum packet latency = -nan
Minimum network latency = nan
Average network latency = -nan
Maximum network latency = -nan
Slowest packet = -1
Minimum flit latency = nan
Average flit latency = -nan
Maximum flit latency = -nan
Slowest flit = -1
Minimum fragmentation = nan
Average fragmentation = -nan
Maximum fragmentation = -nan
Minimum injected packet rate = 0 (at node 0)
Average injected packet rate = 2.08333e-07
Maximum injected packet rate = 6.66667e-06 (at node 16)
Minimum accepted packet rate = 0 (at node 0)
Average accepted packet rate = 0
Maximum accepted packet rate = 0 (at node 0)
Minimum injected flit rate = 0 (at node 0)
Average injected flit rate = 9.375e-07
Maximum injected flit rate = 3.33333e-05 (at node 16)
Minimum accepted flit rate = 0 (at node 0)
Average accepted flit rate = 0
Maximum accepted flit rate = 0 (at node 0)
Total number of injected packets = 2
Total number of injected flits = 9
Average injected packet length = 4.5
Total number of accepted packets = 0
Total number of accepted flits = 0
Average accepted packet length = -nan
Total in-flight flits = 189 (10 measured)
===== Time: 350000 =====
Class 0:
Packets read from trace = 1743 of 20989170 (0%)
Future packets = 1
Waiting packets = 0
Stalled packets = 1619
Packets pending injection = 68
Packets in flight = 46
Minimum packet latency = nan
Average packet latency = -nan
Maximum packet latency = -nan
Minimum network latency = nan
Average network latency = -nan
Maximum network latency = -nan
Slowest packet = -1
Minimum flit latency = nan
Average flit latency = -nan
Maximum flit latency = -nan
Slowest flit = -1
Minimum fragmentation = nan
Average fragmentation = -nan
Maximum fragmentation = -nan
Minimum injected packet rate = 0 (at node 0)
Average injected packet rate = 3.90625e-07
Maximum injected packet rate = 1e-05 (at node 1)
Minimum accepted packet rate = 0 (at node 0)
Average accepted packet rate = 0
Maximum accepted packet rate = 0 (at node 0)
Minimum injected flit rate = 0 (at node 0)
Average injected flit rate = 1.79688e-06
Maximum injected flit rate = 4.5e-05 (at node 1)
Minimum accepted flit rate = 0 (at node 0)
Average accepted flit rate = 0
Maximum accepted flit rate = 0 (at node 0)
Total number of injected packets = 5
Total number of injected flits = 23
Average injected packet length = 4.6
Total number of accepted packets = 0
Total number of accepted flits = 0
Average accepted packet length = -nan
Total in-flight flits = 204 (25 measured)
===== Time: 400000 =====
Class 0:
Packets read from trace = 1854 of 20989170 (0%)
Future packets = 1
Waiting packets = 0
Stalled packets = 1727
Packets pending injection = 70
Packets in flight = 47
Minimum packet latency = nan
Average packet latency = -nan
Maximum packet latency = -nan
Minimum network latency = nan
Average network latency = -nan
Maximum network latency = -nan
Slowest packet = -1
Minimum flit latency = 37
Average flit latency = 37
Maximum flit latency = 37
Slowest flit = 263
Minimum fragmentation = nan
Average fragmentation = -nan
Maximum fragmentation = -nan
Minimum injected packet rate = 0 (at node 0)
Average injected packet rate = 3.75e-07
Maximum injected packet rate = 8e-06 (at node 1)
Minimum accepted packet rate = 0 (at node 0)
Average accepted packet rate = 0
Maximum accepted packet rate = 0 (at node 0)
Minimum injected flit rate = 0 (at node 0)
Average injected flit rate = 1.75e-06
Maximum injected flit rate = 3.6e-05 (at node 1)
Minimum accepted flit rate = 0 (at node 0)
Average accepted flit rate = 2.5e-07
Maximum accepted flit rate = 1.6e-05 (at node 61)
Total number of injected packets = 6
Total number of injected flits = 28
Average injected packet length = 4.66667
Total number of accepted packets = 0
Total number of accepted flits = 4
Average accepted packet length = inf
Total in-flight flits = 205 (26 measured)
===== Time: 450000 =====
Class 0:
Packets read from trace = 1961 of 20989170 (0%)
Future packets = 1
Waiting packets = 0
Stalled packets = 1831
Packets pending injection = 71
Packets in flight = 49
Minimum packet latency = nan
Average packet latency = -nan
Maximum packet latency = -nan
Minimum network latency = nan
Average network latency = -nan
Maximum network latency = -nan
Slowest packet = -1
Minimum flit latency = 37
Average flit latency = 37
Maximum flit latency = 37
Slowest flit = 263
Minimum fragmentation = nan
Average fragmentation = -nan
Maximum fragmentation = -nan
Minimum injected packet rate = 0 (at node 0)
Average injected packet rate = 4.16667e-07
Maximum injected packet rate = 6.66667e-06 (at node 1)
Minimum accepted packet rate = 0 (at node 0)
Average accepted packet rate = 0
Maximum accepted packet rate = 0 (at node 0)
Minimum injected flit rate = 0 (at node 0)
Average injected flit rate = 1.875e-06
Maximum injected flit rate = 3e-05 (at node 1)
Minimum accepted flit rate = 0 (at node 0)
Average accepted flit rate = 2.08333e-07
Maximum accepted flit rate = 1.33333e-05 (at node 61)
Total number of injected packets = 8
Total number of injected flits = 36
Average injected packet length = 4.5
Total number of accepted packets = 0
Total number of accepted flits = 4
Average accepted packet length = inf
Total in-flight flits = 215 (36 measured)
===== Time: 500000 =====
Class 0:
Packets read from trace = 2039 of 20989170 (0%)
Future packets = 1
Waiting packets = 0
Stalled packets = 1906
Packets pending injection = 71
Packets in flight = 50
Minimum packet latency = nan
Average packet latency = -nan
Maximum packet latency = -nan
Minimum network latency = nan
Average network latency = -nan
Maximum network latency = -nan
Slowest packet = -1
Minimum flit latency = 37
Average flit latency = 307881
Maximum flit latency = 428667
Slowest flit = 137
Minimum fragmentation = nan
Average fragmentation = -nan
Maximum fragmentation = -nan
Minimum injected packet rate = 0 (at node 0)
Average injected packet rate = 4.91071e-07
Maximum injected packet rate = 5.71429e-06 (at node 1)
Minimum accepted packet rate = 0 (at node 0)
Average accepted packet rate = 8.92857e-08
Maximum accepted packet rate = 5.71429e-06 (at node 5)
Minimum injected flit rate = 0 (at node 0)
Average injected flit rate = 2.27679e-06
Maximum injected flit rate = 2.57143e-05 (at node 1)
Minimum accepted flit rate = 0 (at node 0)
Average accepted flit rate = 6.69643e-07
Maximum accepted flit rate = 3.14286e-05 (at node 5)
Total number of injected packets = 11
Total number of injected flits = 51
Average injected packet length = 4.63636
Total number of accepted packets = 2
Total number of accepted flits = 15
Average accepted packet length = 7.5
Total in-flight flits = 219 (51 measured)
===== Time: 550000 =====
Class 0:
Packets read from trace = 2135 of 20989170 (0%)
Future packets = 1
Waiting packets = 0
Stalled packets = 2000
Packets pending injection = 72
Packets in flight = 51
Minimum packet latency = nan
Average packet latency = -nan
Maximum packet latency = -nan
Minimum network latency = nan
Average network latency = -nan
Maximum network latency = -nan
Slowest packet = -1
Minimum flit latency = 37
Average flit latency = 307881
Maximum flit latency = 428667
Slowest flit = 137
Minimum fragmentation = nan
Average fragmentation = -nan
Maximum fragmentation = -nan
Minimum injected packet rate = 0 (at node 0)
Average injected packet rate = 4.6875e-07
Maximum injected packet rate = 5e-06 (at node 1)
Minimum accepted packet rate = 0 (at node 0)
Average accepted packet rate = 7.8125e-08
Maximum accepted packet rate = 5e-06 (at node 5)
Minimum injected flit rate = 0 (at node 0)
Average injected flit rate = 2.1875e-06
Maximum injected flit rate = 2.25e-05 (at node 1)
Minimum accepted flit rate = 0 (at node 0)
Average accepted flit rate = 5.85937e-07
Maximum accepted flit rate = 2.75e-05 (at node 5)
Total number of injected packets = 12
Total number of injected flits = 56
Average injected packet length = 4.66667
Total number of accepted packets = 2
Total number of accepted flits = 15
Average accepted packet length = 7.5
Total in-flight flits = 224 (56 measured)
===== Time: 600000 =====
Class 0:
Packets read from trace = 2192 of 20989170 (0%)
Future packets = 1
Waiting packets = 0
Stalled packets = 2055
Packets pending injection = 72
Packets in flight = 53
Minimum packet latency = nan
Average packet latency = -nan
Maximum packet latency = -nan
Minimum network latency = nan
Average network latency = -nan
Maximum network latency = -nan
Slowest packet = -1
Minimum flit latency = 37
Average flit latency = 307881
Maximum flit latency = 428667
Slowest flit = 137
Minimum fragmentation = nan
Average fragmentation = -nan
Maximum fragmentation = -nan
Minimum injected packet rate = 0 (at node 0)
Average injected packet rate = 4.86111e-07
Maximum injected packet rate = 4.44444e-06 (at node 1)
Minimum accepted packet rate = 0 (at node 0)
Average accepted packet rate = 6.94444e-08
Maximum accepted packet rate = 4.44444e-06 (at node 5)
Minimum injected flit rate = 0 (at node 0)
Average injected flit rate = 2.29167e-06
Maximum injected flit rate = 2.22222e-05 (at node 39)
Minimum accepted flit rate = 0 (at node 0)
Average accepted flit rate = 5.20833e-07
Maximum accepted flit rate = 2.44444e-05 (at node 5)
Total number of injected packets = 14
Total number of injected flits = 66
Average injected packet length = 4.71429
Total number of accepted packets = 2
Total number of accepted flits = 15
Average accepted packet length = 7.5
Total in-flight flits = 234 (66 measured)
===== Time: 650000 =====
Class 0:
Packets read from trace = 2306 of 20989170 (0%)
Future packets = 1
Waiting packets = 0
Stalled packets = 2166
Packets pending injection = 72
Packets in flight = 56
Minimum packet latency = nan
Average packet latency = -nan
Maximum packet latency = -nan
Minimum network latency = nan
Average network latency = -nan
Maximum network latency = -nan
Slowest packet = -1
Minimum flit latency = 37
Average flit latency = 307881
Maximum flit latency = 428667
Slowest flit = 137
Minimum fragmentation = nan
Average fragmentation = -nan
Maximum fragmentation = -nan
Minimum injected packet rate = 0 (at node 0)
Average injected packet rate = 4.6875e-07
Maximum injected packet rate = 4e-06 (at node 1)
Minimum accepted packet rate = 0 (at node 0)
Average accepted packet rate = 6.25e-08
Maximum accepted packet rate = 4e-06 (at node 5)
Minimum injected flit rate = 0 (at node 0)
Average injected flit rate = 2.21875e-06
Maximum injected flit rate = 2e-05 (at node 39)
Minimum accepted flit rate = 0 (at node 0)
Average accepted flit rate = 4.6875e-07
Maximum accepted flit rate = 2.2e-05 (at node 5)
Total number of injected packets = 15
Total number of injected flits = 71
Average injected packet length = 4.73333
Total number of accepted packets = 2
Total number of accepted flits = 15
Average accepted packet length = 7.5
Total in-flight flits = 249 (81 measured)
Completed measurements after 650000 cycles.
Draining remaining packets ...
Class 0:
Remaining flits: 12 13 14 15 16 17 18 19 20 21 [...] (249 flits)
Measured flits: 238 239 240 241 242 243 244 245 246 247 [...] (81 flits)
Class 0:
Remaining flits: 12 13 14 15 16 17 18 19 20 21 [...] (247 flits)
Measured flits: 238 239 240 241 242 243 244 245 246 247 [...] (80 flits)
Class 0:
Remaining flits: 12 13 14 15 16 17 18 19 20 21 [...] (245 flits)
Measured flits: 238 239 240 241 242 243 244 245 246 247 [...] (80 flits)
Class 0:
Remaining flits: 12 13 14 15 16 17 18 19 20 21 [...] (236 flits)
Measured flits: 238 239 240 241 242 243 244 245 246 247 [...] (76 flits)
Class 0:
Remaining flits: 12 13 14 15 16 17 18 19 20 21 [...] (230 flits)
Measured flits: 238 239 240 241 242 246 247 248 249 250 [...] (72 flits)
Class 0:
Remaining flits: 12 13 14 15 16 17 18 19 20 21 [...] (219 flits)
Measured flits: 238 239 240 241 242 248 249 250 251 252 [...] (61 flits)
Class 0:
Remaining flits: 12 14 15 16 17 18 19 20 21 22 [...] (217 flits)
Measured flits: 238 239 240 241 242 248 249 250 251 252 [...] (60 flits)
Class 0:
Remaining flits: 12 18 19 20 21 22 28 29 30 31 [...] (207 flits)
Measured flits: 238 239 240 241 242 248 249 250 251 252 [...] (60 flits)
Class 0:
Remaining flits: 12 18 19 20 21 22 28 29 30 31 [...] (199 flits)
Measured flits: 238 239 240 241 242 248 249 250 251 252 [...] (56 flits)
Class 0:
Remaining flits: 12 18 19 20 21 22 28 29 30 31 [...] (190 flits)
Measured flits: 238 239 240 241 242 248 249 250 251 252 [...] (55 flits)
Class 0:
Remaining flits: 12 18 19 20 21 22 28 29 30 31 [...] (187 flits)
Measured flits: 238 239 240 241 242 248 249 250 251 252 [...] (53 flits)
Class 0:
Remaining flits: 12 18 19 20 21 22 28 29 30 31 [...] (181 flits)
Measured flits: 238 239 240 241 242 248 249 250 251 252 [...] (50 flits)
Class 0:
Remaining flits: 12 18 19 20 21 22 28 29 30 31 [...] (179 flits)
Measured flits: 238 239 240 241 242 248 249 250 251 252 [...] (50 flits)
Class 0:
Remaining flits: 12 18 19 20 21 22 28 29 30 31 [...] (179 flits)
Measured flits: 238 239 240 241 242 248 249 250 251 252 [...] (50 flits)
Class 0:
Remaining flits: 12 18 19 20 21 22 28 29 30 31 [...] (174 flits)
Measured flits: 238 239 240 241 242 248 249 250 251 252 [...] (50 flits)
Class 0:
Remaining flits: 12 18 19 20 21 22 28 29 30 31 [...] (174 flits)
Measured flits: 238 239 240 241 242 248 249 250 251 252 [...] (50 flits)
Class 0:
Remaining flits: 12 18 19 20 21 22 28 29 30 31 [...] (174 flits)
Measured flits: 238 239 240 241 242 248 249 250 251 252 [...] (50 flits)
Class 0:
Remaining flits: 12 18 19 20 21 22 28 29 30 31 [...] (174 flits)
Measured flits: 238 239 240 241 242 248 249 250 251 252 [...] (50 flits)
Class 0:
Remaining flits: 12 18 19 20 21 22 28 29 30 31 [...] (174 flits)
Measured flits: 238 239 240 241 242 248 249 250 251 252 [...] (50 flits)
Class 0:
Remaining flits: 12 18 19 20 21 22 28 29 30 31 [...] (174 flits)
Measured flits: 238 239 240 241 242 248 249 250 251 252 [...] (50 flits)
Class 0:
Remaining flits: 12 18 19 20 21 22 28 29 30 31 [...] (174 flits)
Measured flits: 238 239 240 241 242 248 249 250 251 252 [...] (50 flits)
Class 0:
Remaining flits: 12 18 19 20 21 22 28 29 30 31 [...] (174 flits)
Measured flits: 238 239 240 241 242 248 249 250 251 252 [...] (50 flits)
Class 0:
Remaining flits: 12 18 19 20 21 22 28 29 30 31 [...] (174 flits)
Measured flits: 238 239 240 241 242 248 249 250 251 252 [...] (50 flits)
Class 0:
Remaining flits: 12 18 19 20 21 22 28 29 30 31 [...] (174 flits)
Measured flits: 238 239 240 241 242 248 249 250 251 252 [...] (50 flits)
Class 0:
Remaining flits: 12 18 19 20 21 22 28 29 30 31 [...] (174 flits)
Measured flits: 238 239 240 241 242 248 249 250 251 252 [...] (50 flits)
Class 0:
Remaining flits: 12 18 19 20 21 22 28 29 30 31 [...] (174 flits)
Measured flits: 238 239 240 241 242 248 249 250 251 252 [...] (50 flits)
Class 0:
Remaining flits: 12 18 19 20 21 22 28 29 30 31 [...] (174 flits)
Measured flits: 238 239 240 241 242 248 249 250 251 252 [...] (50 flits)
Class 0:
Remaining flits: 12 18 19 20 21 22 28 29 30 31 [...] (174 flits)
Measured flits: 238 239 240 241 242 248 249 250 251 252 [...] (50 flits)
Class 0:
Remaining flits: 12 18 19 20 21 22 28 29 30 31 [...] (174 flits)
Measured flits: 238 239 240 241 242 248 249 250 251 252 [...] (50 flits)
Class 0:
Remaining flits: 12 18 19 20 21 22 28 29 30 31 [...] (174 flits)
Measured flits: 238 239 240 241 242 248 249 250 251 252 [...] (50 flits)
Class 0:
Remaining flits: 12 18 19 20 21 22 28 29 30 31 [...] (174 flits)
Measured flits: 238 239 240 241 242 248 249 250 251 252 [...] (50 flits)
Class 0:
Remaining flits: 12 18 19 20 21 22 28 29 30 31 [...] (174 flits)
Measured flits: 238 239 240 241 242 248 249 250 251 252 [...] (50 flits)
Class 0:
Remaining flits: 12 18 19 20 21 22 28 29 30 31 [...] (174 flits)
Measured flits: 238 239 240 241 242 248 249 250 251 252 [...] (50 flits)
Class 0:
Remaining flits: 12 18 19 20 21 22 28 29 30 31 [...] (174 flits)
Measured flits: 238 239 240 241 242 248 249 250 251 252 [...] (50 flits)
Class 0:
Remaining flits: 12 18 19 20 21 22 28 29 30 31 [...] (174 flits)
Measured flits: 238 239 240 241 242 248 249 250 251 252 [...] (50 flits)
Class 0:
Remaining flits: 12 18 19 20 21 22 28 29 30 31 [...] (174 flits)
Measured flits: 238 239 240 241 242 248 249 250 251 252 [...] (50 flits)
Class 0:
Remaining flits: 12 18 19 20 21 22 28 29 30 31 [...] (174 flits)
Measured flits: 238 239 240 241 242 248 249 250 251 252 [...] (50 flits)
Class 0:
Remaining flits: 12 18 19 20 21 22 28 29 30 31 [...] (174 flits)
Measured flits: 238 239 240 241 242 248 249 250 251 252 [...] (50 flits)
Class 0:
Remaining flits: 12 18 19 20 21 22 28 29 30 31 [...] (174 flits)
Measured flits: 238 239 240 241 242 248 249 250 251 252 [...] (50 flits)
Class 0:
Remaining flits: 12 18 19 20 21 22 28 29 30 31 [...] (174 flits)
Measured flits: 238 239 240 241 242 248 249 250 251 252 [...] (50 flits)
Class 0:
Remaining flits: 12 18 19 20 21 22 28 29 30 31 [...] (174 flits)
Measured flits: 238 239 240 241 242 248 249 250 251 252 [...] (50 flits)
Class 0:
Remaining flits: 12 18 19 20 21 22 28 29 30 31 [...] (174 flits)
Measured flits: 238 239 240 241 242 248 249 250 251 252 [...] (50 flits)
Class 0:
Remaining flits: 12 18 19 20 21 22 28 29 30 31 [...] (174 flits)
Measured flits: 238 239 240 241 242 248 249 250 251 252 [...] (50 flits)
Class 0:
Remaining flits: 12 18 19 20 21 22 28 29 30 31 [...] (174 flits)
Measured flits: 238 239 240 241 242 248 249 250 251 252 [...] (50 flits)
Class 0:
Remaining flits: 12 18 19 20 21 22 28 29 30 31 [...] (174 flits)
Measured flits: 238 239 240 241 242 248 249 250 251 252 [...] (50 flits)
Class 0:
Remaining flits: 12 18 19 20 21 22 28 29 30 31 [...] (174 flits)
Measured flits: 238 239 240 241 242 248 249 250 251 252 [...] (50 flits)
Class 0:
Remaining flits: 12 18 19 20 21 22 28 29 30 31 [...] (174 flits)
Measured flits: 238 239 240 241 242 248 249 250 251 252 [...] (50 flits)
Class 0:
Remaining flits: 12 18 19 20 21 22 28 29 30 31 [...] (174 flits)
Measured flits: 238 239 240 241 242 248 249 250 251 252 [...] (50 flits)
Class 0:
Remaining flits: 12 18 19 20 21 22 28 29 30 31 [...] (174 flits)
Measured flits: 238 239 240 241 242 248 249 250 251 252 [...] (50 flits)
Class 0:
Remaining flits: 12 18 19 20 21 22 28 29 30 31 [...] (174 flits)
Measured flits: 238 239 240 241 242 248 249 250 251 252 [...] (50 flits)
Class 0:
Remaining flits: 12 18 19 20 21 22 28 29 30 31 [...] (174 flits)
Measured flits: 238 239 240 241 242 248 249 250 251 252 [...] (50 flits)
Class 0:
Remaining flits: 12 18 19 20 21 22 28 29 30 31 [...] (174 flits)
Measured flits: 238 239 240 241 242 248 249 250 251 252 [...] (50 flits)
Class 0:
Remaining flits: 12 18 19 20 21 22 28 29 30 31 [...] (174 flits)
Measured flits: 238 239 240 241 242 248 249 250 251 252 [...] (50 flits)
Class 0:
Remaining flits: 12 18 19 20 21 22 28 29 30 31 [...] (174 flits)
Measured flits: 238 239 240 241 242 248 249 250 251 252 [...] (50 flits)
Class 0:
Remaining flits: 12 18 19 20 21 22 28 29 30 31 [...] (174 flits)
Measured flits: 238 239 240 241 242 248 249 250 251 252 [...] (50 flits)
Class 0:
Remaining flits: 12 18 19 20 21 22 28 29 30 31 [...] (174 flits)
Measured flits: 238 239 240 241 242 248 249 250 251 252 [...] (50 flits)
Class 0:
Remaining flits: 12 18 19 20 21 22 28 29 30 31 [...] (174 flits)
Measured flits: 238 239 240 241 242 248 249 250 251 252 [...] (50 flits)
Class 0:
Remaining flits: 12 18 19 20 21 22 28 29 30 31 [...] (174 flits)
Measured flits: 238 239 240 241 242 248 249 250 251 252 [...] (50 flits)
Class 0:
Remaining flits: 12 18 19 20 21 22 28 29 30 31 [...] (174 flits)
Measured flits: 238 239 240 241 242 248 249 250 251 252 [...] (50 flits)
Class 0:
Remaining flits: 12 18 19 20 21 22 28 29 30 31 [...] (174 flits)
Measured flits: 238 239 240 241 242 248 249 250 251 252 [...] (50 flits)
Class 0:
Remaining flits: 12 18 19 20 21 22 28 29 30 31 [...] (174 flits)
Measured flits: 238 239 240 241 242 248 249 250 251 252 [...] (50 flits)
Class 0:
Remaining flits: 12 18 19 20 21 22 28 29 30 31 [...] (174 flits)
Measured flits: 238 239 240 241 242 248 249 250 251 252 [...] (50 flits)
Class 0:
Remaining flits: 12 18 19 20 21 22 28 29 30 31 [...] (174 flits)
Measured flits: 238 239 240 241 242 248 249 250 251 252 [...] (50 flits)
Class 0:
Remaining flits: 12 18 19 20 21 22 28 29 30 31 [...] (174 flits)
Measured flits: 238 239 240 241 242 248 249 250 251 252 [...] (50 flits)
Class 0:
Remaining flits: 12 18 19 20 21 22 28 29 30 31 [...] (174 flits)
Measured flits: 238 239 240 241 242 248 249 250 251 252 [...] (50 flits)
Class 0:
Remaining flits: 12 18 19 20 21 22 28 29 30 31 [...] (174 flits)
Measured flits: 238 239 240 241 242 248 249 250 251 252 [...] (50 flits)
Class 0:
Remaining flits: 12 18 19 20 21 22 28 29 30 31 [...] (174 flits)
Measured flits: 238 239 240 241 242 248 249 250 251 252 [...] (50 flits)
Class 0:
Remaining flits: 12 18 19 20 21 22 28 29 30 31 [...] (174 flits)
Measured flits: 238 239 240 241 242 248 249 250 251 252 [...] (50 flits)
Class 0:
Remaining flits: 12 18 19 20 21 22 28 29 30 31 [...] (174 flits)
Measured flits: 238 239 240 241 242 248 249 250 251 252 [...] (50 flits)
Class 0:
Remaining flits: 12 18 19 20 21 22 28 29 30 31 [...] (174 flits)
Measured flits: 238 239 240 241 242 248 249 250 251 252 [...] (50 flits)
Class 0:
Remaining flits: 12 18 19 20 21 22 28 29 30 31 [...] (174 flits)
Measured flits: 238 239 240 241 242 248 249 250 251 252 [...] (50 flits)
Class 0:
Remaining flits: 12 18 19 20 21 22 28 29 30 31 [...] (174 flits)
Measured flits: 238 239 240 241 242 248 249 250 251 252 [...] (50 flits)
Class 0:
Remaining flits: 12 18 19 20 21 22 28 29 30 31 [...] (174 flits)
Measured flits: 238 239 240 241 242 248 249 250 251 252 [...] (50 flits)
Class 0:
Remaining flits: 12 18 19 20 21 22 28 29 30 31 [...] (174 flits)
Measured flits: 238 239 240 241 242 248 249 250 251 252 [...] (50 flits)
Class 0:
Remaining flits: 12 18 19 20 21 22 28 29 30 31 [...] (174 flits)
Measured flits: 238 239 240 241 242 248 249 250 251 252 [...] (50 flits)
Class 0:
Remaining flits: 12 18 19 20 21 22 28 29 30 31 [...] (174 flits)
Measured flits: 238 239 240 241 242 248 249 250 251 252 [...] (50 flits)
Class 0:
Remaining flits: 12 18 19 20 21 22 28 29 30 31 [...] (174 flits)
Measured flits: 238 239 240 241 242 248 249 250 251 252 [...] (50 flits)
Class 0:
Remaining flits: 12 18 19 20 21 22 28 29 30 31 [...] (174 flits)
Measured flits: 238 239 240 241 242 248 249 250 251 252 [...] (50 flits)
Class 0:
Remaining flits: 12 18 19 20 21 22 28 29 30 31 [...] (174 flits)
Measured flits: 238 239 240 241 242 248 249 250 251 252 [...] (50 flits)
Class 0:
Remaining flits: 12 18 19 20 21 22 28 29 30 31 [...] (174 flits)
Measured flits: 238 239 240 241 242 248 249 250 251 252 [...] (50 flits)
Class 0:
Remaining flits: 12 18 19 20 21 22 28 29 30 31 [...] (174 flits)
Measured flits: 238 239 240 241 242 248 249 250 251 252 [...] (50 flits)
Class 0:
Remaining flits: 12 18 19 20 21 22 28 29 30 31 [...] (174 flits)
Measured flits: 238 239 240 241 242 248 249 250 251 252 [...] (50 flits)
Class 0:
Remaining flits: 12 18 19 20 21 22 28 29 30 31 [...] (174 flits)
Measured flits: 238 239 240 241 242 248 249 250 251 252 [...] (50 flits)
Class 0:
Remaining flits: 12 18 19 20 21 22 28 29 30 31 [...] (174 flits)
Measured flits: 238 239 240 241 242 248 249 250 251 252 [...] (50 flits)
Class 0:
Remaining flits: 12 18 19 20 21 22 28 29 30 31 [...] (174 flits)
Measured flits: 238 239 240 241 242 248 249 250 251 252 [...] (50 flits)
Class 0:
Remaining flits: 12 18 19 20 21 22 28 29 30 31 [...] (174 flits)
Measured flits: 238 239 240 241 242 248 249 250 251 252 [...] (50 flits)
Class 0:
Remaining flits: 12 18 19 20 21 22 28 29 30 31 [...] (174 flits)
Measured flits: 238 239 240 241 242 248 249 250 251 252 [...] (50 flits)
Class 0:
Remaining flits: 12 18 19 20 21 22 28 29 30 31 [...] (174 flits)
Measured flits: 238 239 240 241 242 248 249 250 251 252 [...] (50 flits)
Class 0:
Remaining flits: 12 18 19 20 21 22 28 29 30 31 [...] (174 flits)
Measured flits: 238 239 240 241 242 248 249 250 251 252 [...] (50 flits)
Class 0:
Remaining flits: 12 18 19 20 21 22 28 29 30 31 [...] (174 flits)
Measured flits: 238 239 240 241 242 248 249 250 251 252 [...] (50 flits)
Class 0:
Remaining flits: 12 18 19 20 21 22 28 29 30 31 [...] (174 flits)
Measured flits: 238 239 240 241 242 248 249 250 251 252 [...] (50 flits)
Class 0:
Remaining flits: 12 18 19 20 21 22 28 29 30 31 [...] (174 flits)
Measured flits: 238 239 240 241 242 248 249 250 251 252 [...] (50 flits)
Class 0:
Remaining flits: 12 18 19 20 21 22 28 29 30 31 [...] (174 flits)
Measured flits: 238 239 240 241 242 248 249 250 251 252 [...] (50 flits)
Class 0:
Remaining flits: 12 18 19 20 21 22 28 29 30 31 [...] (174 flits)
Measured flits: 238 239 240 241 242 248 249 250 251 252 [...] (50 flits)
Class 0:
Remaining flits: 12 18 19 20 21 22 28 29 30 31 [...] (174 flits)
Measured flits: 238 239 240 241 242 248 249 250 251 252 [...] (50 flits)
Class 0:
Remaining flits: 12 18 19 20 21 22 28 29 30 31 [...] (174 flits)
Measured flits: 238 239 240 241 242 248 249 250 251 252 [...] (50 flits)
Class 0:
Remaining flits: 12 18 19 20 21 22 28 29 30 31 [...] (174 flits)
Measured flits: 238 239 240 241 242 248 249 250 251 252 [...] (50 flits)
Class 0:
Remaining flits: 12 18 19 20 21 22 28 29 30 31 [...] (174 flits)
Measured flits: 238 239 240 241 242 248 249 250 251 252 [...] (50 flits)
Class 0:
Remaining flits: 12 18 19 20 21 22 28 29 30 31 [...] (174 flits)
Measured flits: 238 239 240 241 242 248 249 250 251 252 [...] (50 flits)
Class 0:
Remaining flits: 12 18 19 20 21 22 28 29 30 31 [...] (174 flits)
Measured flits: 238 239 240 241 242 248 249 250 251 252 [...] (50 flits)
Class 0:
Remaining flits: 12 18 19 20 21 22 28 29 30 31 [...] (174 flits)
Measured flits: 238 239 240 241 242 248 249 250 251 252 [...] (50 flits)
Time taken is 651000 cycles
====== Traffic class 0 ======

Total number of flits generated = 323, changed lanes = 0
Overall minimum packet latency = 18881 (1 samples)
Overall average packet latency = 171378 (1 samples)
Overall maximum packet latency = 414426 (1 samples)
Overall minimum network latency = 84 (1 samples)
Overall average network latency = 168692 (1 samples)
Overall maximum network latency = 414426 (1 samples)
Overall minimum flit latency = 37 (1 samples)
Overall average flit latency = 340797 (1 samples)
Overall maximum flit latency = 648751 (1 samples)
Overall minimum fragmentation = 4 (1 samples)
Overall average fragmentation = 41547.1 (1 samples)
Overall maximum fragmentation = 290802 (1 samples)
Overall minimum injected packet rate = 0 (1 samples)
Overall average injected packet rate = 4.6875e-07 (1 samples)
Overall maximum injected packet rate = 4e-06 (1 samples)
Overall minimum accepted packet rate = 0 (1 samples)
Overall average accepted packet rate = 6.25e-08 (1 samples)
Overall maximum accepted packet rate = 4e-06 (1 samples)
Overall minimum injected flit rate = 0 (1 samples)
Overall average injected flit rate = 2.21875e-06 (1 samples)
Overall maximum injected flit rate = 2e-05 (1 samples)
Overall minimum accepted flit rate = 0 (1 samples)
Overall average accepted flit rate = 4.6875e-07 (1 samples)
Overall maximum accepted flit rate = 2.2e-05 (1 samples)
Overall average injected packet size = 4.73333 (1 samples)
Overall average accepted packet size = 7.5 (1 samples)
Overall average hops = 6 (1 samples)
Overall throughput of the network (flits/cycle) = 0.000298
Overall throughput of the network (packets/cycle) = 5.8e-05
Overall workload runtime = 500000 (1 samples)

The distribution of the source packets of size 1 is: 

Source [0] = 0
Source [1] = 0
Source [2] = 1
Source [3] = 0
Source [4] = 0
Source [5] = 0
Source [6] = 0
Source [7] = 0
Source [8] = 0
Source [9] = 0
Source [10] = 0
Source [11] = 0
Source [12] = 0
Source [13] = 0
Source [14] = 0
Source [15] = 0
Source [16] = 0
Source [17] = 0
Source [18] = 0
Source [19] = 0
Source [20] = 0
Source [21] = 0
Source [22] = 0
Source [23] = 0
Source [24] = 0
Source [25] = 0
Source [26] = 0
Source [27] = 0
Source [28] = 0
Source [29] = 0
Source [30] = 0
Source [31] = 0
Source [32] = 0
Source [33] = 0
Source [34] = 0
Source [35] = 0
Source [36] = 0
Source [37] = 0
Source [38] = 1
Source [39] = 0
Source [40] = 0
Source [41] = 0
Source [42] = 0
Source [43] = 0
Source [44] = 0
Source [45] = 0
Source [46] = 0
Source [47] = 0
Source [48] = 0
Source [49] = 0
Source [50] = 0
Source [51] = 0
Source [52] = 0
Source [53] = 0
Source [54] = 0
Source [55] = 0
Source [56] = 0
Source [57] = 0
Source [58] = 1
Source [59] = 0
Source [60] = 0
Source [61] = 0
Source [62] = 0
Source [63] = 0
The distribution of the source packets of size 5 is: 

Source [0] = 0
Source [1] = 3
Source [2] = 3
Source [3] = 4
Source [4] = 1
Source [5] = 3
Source [6] = 4
Source [7] = 2
Source [8] = 0
Source [9] = 2
Source [10] = 1
Source [11] = 0
Source [12] = 0
Source [13] = 0
Source [14] = 0
Source [15] = 0
Source [16] = 1
Source [17] = 1
Source [18] = 0
Source [19] = 0
Source [20] = 0
Source [21] = 2
Source [22] = 1
Source [23] = 2
Source [24] = 0
Source [25] = 1
Source [26] = 0
Source [27] = 0
Source [28] = 0
Source [29] = 1
Source [30] = 0
Source [31] = 0
Source [32] = 1
Source [33] = 1
Source [34] = 0
Source [35] = 0
Source [36] = 0
Source [37] = 0
Source [38] = 2
Source [39] = 3
Source [40] = 3
Source [41] = 1
Source [42] = 0
Source [43] = 0
Source [44] = 1
Source [45] = 2
Source [46] = 0
Source [47] = 1
Source [48] = 1
Source [49] = 1
Source [50] = 0
Source [51] = 4
Source [52] = 1
Source [53] = 1
Source [54] = 3
Source [55] = 0
Source [56] = 0
Source [57] = 2
Source [58] = 0
Source [59] = 1
Source [60] = 0
Source [61] = 3
Source [62] = 0
Source [63] = 0
The distribution of the dest packets of size 1 is: 

dest [0] = 0
dest [1] = 0
dest [2] = 0
dest [3] = 0
dest [4] = 0
dest [5] = 0
dest [6] = 0
dest [7] = 0
dest [8] = 0
dest [9] = 0
dest [10] = 0
dest [11] = 0
dest [12] = 0
dest [13] = 0
dest [14] = 0
dest [15] = 0
dest [16] = 0
dest [17] = 0
dest [18] = 0
dest [19] = 0
dest [20] = 0
dest [21] = 0
dest [22] = 0
dest [23] = 0
dest [24] = 0
dest [25] = 0
dest [26] = 0
dest [27] = 0
dest [28] = 0
dest [29] = 0
dest [30] = 0
dest [31] = 0
dest [32] = 0
dest [33] = 0
dest [34] = 0
dest [35] = 0
dest [36] = 0
dest [37] = 0
dest [38] = 2
dest [39] = 0
dest [40] = 0
dest [41] = 0
dest [42] = 0
dest [43] = 0
dest [44] = 0
dest [45] = 0
dest [46] = 0
dest [47] = 0
dest [48] = 0
dest [49] = 0
dest [50] = 0
dest [51] = 0
dest [52] = 0
dest [53] = 0
dest [54] = 0
dest [55] = 0
dest [56] = 0
dest [57] = 0
dest [58] = 1
dest [59] = 0
dest [60] = 0
dest [61] = 0
dest [62] = 0
dest [63] = 0
The distribution of the dest packets of size 5 is: 

dest [0] = 0
dest [1] = 0
dest [2] = 7
dest [3] = 0
dest [4] = 0
dest [5] = 12
dest [6] = 0
dest [7] = 0
dest [8] = 0
dest [9] = 0
dest [10] = 0
dest [11] = 0
dest [12] = 0
dest [13] = 0
dest [14] = 0
dest [15] = 0
dest [16] = 3
dest [17] = 0
dest [18] = 0
dest [19] = 0
dest [20] = 0
dest [21] = 0
dest [22] = 0
dest [23] = 9
dest [24] = 0
dest [25] = 0
dest [26] = 0
dest [27] = 0
dest [28] = 0
dest [29] = 0
dest [30] = 0
dest [31] = 0
dest [32] = 0
dest [33] = 0
dest [34] = 0
dest [35] = 0
dest [36] = 0
dest [37] = 0
dest [38] = 0
dest [39] = 0
dest [40] = 4
dest [41] = 0
dest [42] = 0
dest [43] = 0
dest [44] = 0
dest [45] = 0
dest [46] = 0
dest [47] = 12
dest [48] = 0
dest [49] = 0
dest [50] = 0
dest [51] = 0
dest [52] = 0
dest [53] = 0
dest [54] = 0
dest [55] = 0
dest [56] = 0
dest [57] = 0
dest [58] = 9
dest [59] = 0
dest [60] = 0
dest [61] = 8
dest [62] = 0
dest [63] = 0Total run time 4475.3
