make: Nothing to be done for 'all'.
Master: Running timer....
Master: Running SRC....
BEGIN Configuration File: ./examples/bitrev
// Topology

topology = mesh;
k = 4;
n = 2;

// Routing
routing_function = dor;

// Flow control
num_vcs     = 1;
vc_buf_size = 4;
wait_for_tail_credit = 0;

// Router architecture
vc_allocator = islip;
sw_allocator = islip;
alloc_iters  = 1;

credit_delay   = 1;
routing_delay  = 1;
vc_alloc_delay = 1;
sw_alloc_delay = 1;

input_speedup     = 1;
output_speedup    = 1;
internal_speedup  = 1.0;

vc_busy_when_full = 0;

// Traffic
traffic = neighbor;
packet_size = 3;

// Simulation
sim_type = throughput;

injection_rate = 0.05;

END Configuration File: ./examples/bitrev
===== Time: 10000 =====
Class 0:
Minimum packet latency = 25
Average packet latency = 56.1154
Maximum packet latency = 197
Minimum network latency = 26
Average network latency = 52.3552
Maximum network latency = 168
Slowest packet = 694
Minimum flit latency = 23
Average flit latency = 46.2073
Maximum flit latency = 162
Slowest flit = 6464
Minimum fragmentation = 0
Average fragmentation = 5.45373
Maximum fragmentation = 113
Minimum injected packet rate = 0.0465 (at node 3)
Average injected packet rate = 0.04945
Maximum injected packet rate = 0.0536 (at node 11)
Minimum accepted packet rate = 0.0461 (at node 4)
Average accepted packet rate = 0.0492312
Maximum accepted packet rate = 0.0531 (at node 12)
Minimum injected flit rate = 0.1395 (at node 3)
Average injected flit rate = 0.14835
Maximum injected flit rate = 0.1608 (at node 11)
Minimum accepted flit rate = 0.1384 (at node 4)
Average accepted flit rate = 0.147762
Maximum accepted flit rate = 0.1595 (at node 14)
Total number of injected packets = 7912
Total number of injected flits = 23736
Average injected packet length = 3
Total number of accepted packets = 7877
Total number of accepted flits = 23642
Average accepted packet length = 3.0014
Total in-flight flits = 100 (0 measured)
===== Time: 20000 =====
Class 0:
Minimum packet latency = 25
Average packet latency = 55.9666
Maximum packet latency = 197
Minimum network latency = 26
Average network latency = 52.2793
Maximum network latency = 171
Slowest packet = 694
Minimum flit latency = 22
Average flit latency = 46.1689
Maximum flit latency = 168
Slowest flit = 41111
Minimum fragmentation = 0
Average fragmentation = 5.38495
Maximum fragmentation = 131
Minimum injected packet rate = 0.0479 (at node 13)
Average injected packet rate = 0.0500375
Maximum injected packet rate = 0.05315 (at node 9)
Minimum accepted packet rate = 0.04775 (at node 2)
Average accepted packet rate = 0.0499094
Maximum accepted packet rate = 0.0531 (at node 14)
Minimum injected flit rate = 0.1437 (at node 13)
Average injected flit rate = 0.150091
Maximum injected flit rate = 0.15945 (at node 9)
Minimum accepted flit rate = 0.14325 (at node 2)
Average accepted flit rate = 0.149741
Maximum accepted flit rate = 0.15935 (at node 14)
Total number of injected packets = 16012
Total number of injected flits = 48029
Average injected packet length = 2.99956
Total number of accepted packets = 15971
Total number of accepted flits = 47917
Average accepted packet length = 3.00025
Total in-flight flits = 119 (0 measured)
===== Time: 30000 =====
Class 0:
Minimum packet latency = 25
Average packet latency = 55.6948
Maximum packet latency = 192
Minimum network latency = 26
Average network latency = 52.4872
Maximum network latency = 193
Slowest packet = 20199
Minimum flit latency = 22
Average flit latency = 46.2531
Maximum flit latency = 191
Slowest flit = 60599
Minimum fragmentation = 0
Average fragmentation = 5.58093
Maximum fragmentation = 157
Minimum injected packet rate = 0.0467 (at node 3)
Average injected packet rate = 0.049575
Maximum injected packet rate = 0.0542 (at node 14)
Minimum accepted packet rate = 0.0465 (at node 4)
Average accepted packet rate = 0.0496188
Maximum accepted packet rate = 0.0541 (at node 3)
Minimum injected flit rate = 0.14 (at node 3)
Average injected flit rate = 0.148725
Maximum injected flit rate = 0.1624 (at node 14)
Minimum accepted flit rate = 0.1397 (at node 4)
Average accepted flit rate = 0.1489
Maximum accepted flit rate = 0.1625 (at node 3)
Total number of injected packets = 7932
Total number of injected flits = 23796
Average injected packet length = 3
Total number of accepted packets = 7939
Total number of accepted flits = 23824
Average accepted packet length = 3.00088
Total in-flight flits = 94 (0 measured)
===== Time: 40000 =====
Class 0:
Minimum packet latency = 24
Average packet latency = 54.9777
Maximum packet latency = 175
Minimum network latency = 25
Average network latency = 51.9467
Maximum network latency = 162
Slowest packet = 24523
Minimum flit latency = 22
Average flit latency = 45.9002
Maximum flit latency = 160
Slowest flit = 73571
Minimum fragmentation = 1
Average fragmentation = 5.37903
Maximum fragmentation = 136
Minimum injected packet rate = 0.0469 (at node 11)
Average injected packet rate = 0.0502
Maximum injected packet rate = 0.0531 (at node 12)
Minimum accepted packet rate = 0.0468 (at node 12)
Average accepted packet rate = 0.0501812
Maximum accepted packet rate = 0.0528 (at node 1)
Minimum injected flit rate = 0.1407 (at node 11)
Average injected flit rate = 0.1506
Maximum injected flit rate = 0.1591 (at node 12)
Minimum accepted flit rate = 0.1404 (at node 12)
Average accepted flit rate = 0.150487
Maximum accepted flit rate = 0.1584 (at node 1)
Total number of injected packets = 8032
Total number of injected flits = 24096
Average injected packet length = 3
Total number of accepted packets = 8029
Total number of accepted flits = 24078
Average accepted packet length = 2.99888
Total in-flight flits = 109 (109 measured)
===== Time: 50000 =====
Class 0:
Minimum packet latency = 24
Average packet latency = 55.5325
Maximum packet latency = 212
Minimum network latency = 25
Average network latency = 52.3008
Maximum network latency = 213
Slowest packet = 39609
Minimum flit latency = 22
Average flit latency = 46.2064
Maximum flit latency = 211
Slowest flit = 118829
Minimum fragmentation = 0
Average fragmentation = 5.39002
Maximum fragmentation = 171
Minimum injected packet rate = 0.04865 (at node 9)
Average injected packet rate = 0.0503062
Maximum injected packet rate = 0.0531 (at node 4)
Minimum accepted packet rate = 0.04855 (at node 14)
Average accepted packet rate = 0.0502906
Maximum accepted packet rate = 0.0531 (at node 9)
Minimum injected flit rate = 0.14595 (at node 9)
Average injected flit rate = 0.150928
Maximum injected flit rate = 0.1593 (at node 4)
Minimum accepted flit rate = 0.1456 (at node 14)
Average accepted flit rate = 0.150863
Maximum accepted flit rate = 0.1593 (at node 9)
Total number of injected packets = 16098
Total number of injected flits = 48297
Average injected packet length = 3.00019
Total number of accepted packets = 16093
Total number of accepted flits = 48276
Average accepted packet length = 2.99981
Total in-flight flits = 109 (109 measured)
===== Time: 60000 =====
Class 0:
Minimum packet latency = 24
Average packet latency = 55.5616
Maximum packet latency = 212
Minimum network latency = 25
Average network latency = 52.2303
Maximum network latency = 213
Slowest packet = 39609
Minimum flit latency = 22
Average flit latency = 46.1103
Maximum flit latency = 211
Slowest flit = 118829
Minimum fragmentation = 0
Average fragmentation = 5.4079
Maximum fragmentation = 171
Minimum injected packet rate = 0.0487 (at node 3)
Average injected packet rate = 0.0501833
Maximum injected packet rate = 0.0518667 (at node 4)
Minimum accepted packet rate = 0.0488333 (at node 4)
Average accepted packet rate = 0.0501521
Maximum accepted packet rate = 0.0518 (at node 9)
Minimum injected flit rate = 0.146133 (at node 3)
Average injected flit rate = 0.150546
Maximum injected flit rate = 0.1556 (at node 4)
Minimum accepted flit rate = 0.146433 (at node 4)
Average accepted flit rate = 0.15046
Maximum accepted flit rate = 0.1554 (at node 9)
Total number of injected packets = 24088
Total number of injected flits = 72262
Average injected packet length = 2.99992
Total number of accepted packets = 24073
Total number of accepted flits = 72221
Average accepted packet length = 3.00008
Total in-flight flits = 134 (134 measured)
Draining remaining packets ...
Class 0:
Remaining flits: 143877 143878 143879 143913 143914 143915 143946 143947 143948 143970 [...] (107 flits)
Measured flits: 143877 143878 143879 143913 143914 143915 143946 143947 143948 143970 [...] (107 flits)
Class 0:
Remaining flits: 143913 143914 143915 143946 143947 143948 143988 143989 143990 143997 [...] (73 flits)
Measured flits: 143913 143914 143915 143946 143947 143948 143988 143989 143990 143997 [...] (73 flits)
Class 0:
Remaining flits: 143913 143914 143915 143946 143947 143948 143988 143989 143990 143999 [...] (49 flits)
Measured flits: 143913 143914 143915 143946 143947 143948 143988 143989 143990 143999 [...] (49 flits)
Class 0:
Remaining flits: 143915 143946 143947 143948 143988 143989 143990 143999 144030 144031 [...] (37 flits)
Measured flits: 143915 143946 143947 143948 143988 143989 143990 143999 144030 144031 [...] (37 flits)
Class 0:
Remaining flits: 143948 143988 143989 143990 143999 144047 144053 144054 144055 144056 [...] (26 flits)
Measured flits: 143948 143988 143989 143990 143999 144047 144053 144054 144055 144056 [...] (26 flits)
Class 0:
Remaining flits: 143988 143989 143990 143999 144047 144053 144054 144055 144056 144069 [...] (20 flits)
Measured flits: 143988 143989 143990 143999 144047 144053 144054 144055 144056 144069 [...] (20 flits)
Class 0:
Remaining flits: 143990 143999 144047 144053 144054 144055 144056 144069 144070 144071 [...] (17 flits)
Measured flits: 143990 143999 144047 144053 144054 144055 144056 144069 144070 144071 [...] (17 flits)
Class 0:
Remaining flits: 143999 144047 144053 144056 144069 144070 144071 144074 144083 144086 [...] (12 flits)
Measured flits: 143999 144047 144053 144056 144069 144070 144071 144074 144083 144086 [...] (12 flits)
Class 0:
Remaining flits: 143999 144047 144053 144071 144074 144083 144086 144088 144089 (9 flits)
Measured flits: 143999 144047 144053 144071 144074 144083 144086 144088 144089 (9 flits)
Class 0:
Remaining flits: 143999 144047 144053 144071 144074 144083 144086 144088 144089 (9 flits)
Measured flits: 143999 144047 144053 144071 144074 144083 144086 144088 144089 (9 flits)
Class 0:
Remaining flits: 143999 144047 144053 144071 144074 144083 144086 144088 144089 (9 flits)
Measured flits: 143999 144047 144053 144071 144074 144083 144086 144088 144089 (9 flits)
Class 0:
Remaining flits: 143999 144047 144053 144071 144074 144083 144086 144088 144089 (9 flits)
Measured flits: 143999 144047 144053 144071 144074 144083 144086 144088 144089 (9 flits)
Class 0:
Remaining flits: 143999 144047 144053 144071 144074 144083 144086 144088 144089 (9 flits)
Measured flits: 143999 144047 144053 144071 144074 144083 144086 144088 144089 (9 flits)
Class 0:
Remaining flits: 143999 144047 144053 144071 144074 144083 144086 144088 144089 (9 flits)
Measured flits: 143999 144047 144053 144071 144074 144083 144086 144088 144089 (9 flits)
Class 0:
Remaining flits: 143999 144047 144053 144071 144074 144083 144086 144088 144089 (9 flits)
Measured flits: 143999 144047 144053 144071 144074 144083 144086 144088 144089 (9 flits)
Class 0:
Remaining flits: 143999 144047 144053 144071 144074 144083 144086 144088 144089 (9 flits)
Measured flits: 143999 144047 144053 144071 144074 144083 144086 144088 144089 (9 flits)
Class 0:
Remaining flits: 143999 144047 144053 144071 144074 144083 144086 144088 144089 (9 flits)
Measured flits: 143999 144047 144053 144071 144074 144083 144086 144088 144089 (9 flits)
Class 0:
Remaining flits: 143999 144047 144053 144071 144074 144083 144086 144088 144089 (9 flits)
Measured flits: 143999 144047 144053 144071 144074 144083 144086 144088 144089 (9 flits)
Class 0:
Remaining flits: 143999 144047 144053 144071 144074 144083 144086 144088 144089 (9 flits)
Measured flits: 143999 144047 144053 144071 144074 144083 144086 144088 144089 (9 flits)
Class 0:
Remaining flits: 143999 144047 144053 144071 144074 144083 144086 144088 144089 (9 flits)
Measured flits: 143999 144047 144053 144071 144074 144083 144086 144088 144089 (9 flits)
Class 0:
Remaining flits: 143999 144047 144053 144071 144074 144083 144086 144088 144089 (9 flits)
Measured flits: 143999 144047 144053 144071 144074 144083 144086 144088 144089 (9 flits)
Class 0:
Remaining flits: 143999 144047 144053 144071 144074 144083 144086 144088 144089 (9 flits)
Measured flits: 143999 144047 144053 144071 144074 144083 144086 144088 144089 (9 flits)
Class 0:
Remaining flits: 143999 144047 144053 144071 144074 144083 144086 144088 144089 (9 flits)
Measured flits: 143999 144047 144053 144071 144074 144083 144086 144088 144089 (9 flits)
Class 0:
Remaining flits: 143999 144047 144053 144071 144074 144083 144086 144088 144089 (9 flits)
Measured flits: 143999 144047 144053 144071 144074 144083 144086 144088 144089 (9 flits)
Class 0:
Remaining flits: 143999 144047 144053 144071 144074 144083 144086 144088 144089 (9 flits)
Measured flits: 143999 144047 144053 144071 144074 144083 144086 144088 144089 (9 flits)
Class 0:
Remaining flits: 143999 144047 144053 144071 144074 144083 144086 144088 144089 (9 flits)
Measured flits: 143999 144047 144053 144071 144074 144083 144086 144088 144089 (9 flits)
Class 0:
Remaining flits: 143999 144047 144053 144071 144074 144083 144086 144088 144089 (9 flits)
Measured flits: 143999 144047 144053 144071 144074 144083 144086 144088 144089 (9 flits)
Class 0:
Remaining flits: 143999 144047 144053 144071 144074 144083 144086 144088 144089 (9 flits)
Measured flits: 143999 144047 144053 144071 144074 144083 144086 144088 144089 (9 flits)
Class 0:
Remaining flits: 143999 144047 144053 144071 144074 144083 144086 144088 144089 (9 flits)
Measured flits: 143999 144047 144053 144071 144074 144083 144086 144088 144089 (9 flits)
Class 0:
Remaining flits: 143999 144047 144053 144071 144074 144083 144086 144088 144089 (9 flits)
Measured flits: 143999 144047 144053 144071 144074 144083 144086 144088 144089 (9 flits)
Class 0:
Remaining flits: 143999 144047 144053 144071 144074 144083 144086 144088 144089 (9 flits)
Measured flits: 143999 144047 144053 144071 144074 144083 144086 144088 144089 (9 flits)
Class 0:
Remaining flits: 143999 144047 144053 144071 144074 144083 144086 144088 144089 (9 flits)
Measured flits: 143999 144047 144053 144071 144074 144083 144086 144088 144089 (9 flits)
Class 0:
Remaining flits: 143999 144047 144053 144071 144074 144083 144086 144088 144089 (9 flits)
Measured flits: 143999 144047 144053 144071 144074 144083 144086 144088 144089 (9 flits)
Class 0:
Remaining flits: 143999 144047 144053 144071 144074 144083 144086 144088 144089 (9 flits)
Measured flits: 143999 144047 144053 144071 144074 144083 144086 144088 144089 (9 flits)
Class 0:
Remaining flits: 143999 144047 144053 144071 144074 144083 144086 144088 144089 (9 flits)
Measured flits: 143999 144047 144053 144071 144074 144083 144086 144088 144089 (9 flits)
Class 0:
Remaining flits: 143999 144047 144053 144071 144074 144083 144086 144088 144089 (9 flits)
Measured flits: 143999 144047 144053 144071 144074 144083 144086 144088 144089 (9 flits)
Class 0:
Remaining flits: 143999 144047 144053 144071 144074 144083 144086 144088 144089 (9 flits)
Measured flits: 143999 144047 144053 144071 144074 144083 144086 144088 144089 (9 flits)
Class 0:
Remaining flits: 143999 144047 144053 144071 144074 144083 144086 144088 144089 (9 flits)
Measured flits: 143999 144047 144053 144071 144074 144083 144086 144088 144089 (9 flits)
Class 0:
Remaining flits: 143999 144047 144053 144071 144074 144083 144086 144088 144089 (9 flits)
Measured flits: 143999 144047 144053 144071 144074 144083 144086 144088 144089 (9 flits)
Class 0:
Remaining flits: 143999 144047 144053 144071 144074 144083 144086 144088 144089 (9 flits)
Measured flits: 143999 144047 144053 144071 144074 144083 144086 144088 144089 (9 flits)
Class 0:
Remaining flits: 143999 144047 144053 144071 144074 144083 144086 144088 144089 (9 flits)
Measured flits: 143999 144047 144053 144071 144074 144083 144086 144088 144089 (9 flits)
Class 0:
Remaining flits: 143999 144047 144053 144071 144074 144083 144086 144088 144089 (9 flits)
Measured flits: 143999 144047 144053 144071 144074 144083 144086 144088 144089 (9 flits)
Class 0:
Remaining flits: 143999 144047 144053 144071 144074 144083 144086 144088 144089 (9 flits)
Measured flits: 143999 144047 144053 144071 144074 144083 144086 144088 144089 (9 flits)
Class 0:
Remaining flits: 143999 144047 144053 144071 144074 144083 144086 144088 144089 (9 flits)
Measured flits: 143999 144047 144053 144071 144074 144083 144086 144088 144089 (9 flits)
Class 0:
Remaining flits: 143999 144047 144053 144071 144074 144083 144086 144088 144089 (9 flits)
Measured flits: 143999 144047 144053 144071 144074 144083 144086 144088 144089 (9 flits)
Class 0:
Remaining flits: 143999 144047 144053 144071 144074 144083 144086 144088 144089 (9 flits)
Measured flits: 143999 144047 144053 144071 144074 144083 144086 144088 144089 (9 flits)
Class 0:
Remaining flits: 143999 144047 144053 144071 144074 144083 144086 144088 144089 (9 flits)
Measured flits: 143999 144047 144053 144071 144074 144083 144086 144088 144089 (9 flits)
Class 0:
Remaining flits: 143999 144047 144053 144071 144074 144083 144086 144088 144089 (9 flits)
Measured flits: 143999 144047 144053 144071 144074 144083 144086 144088 144089 (9 flits)
Class 0:
Remaining flits: 143999 144047 144053 144071 144074 144083 144086 144088 144089 (9 flits)
Measured flits: 143999 144047 144053 144071 144074 144083 144086 144088 144089 (9 flits)
Class 0:
Remaining flits: 143999 144047 144053 144071 144074 144083 144086 144088 144089 (9 flits)
Measured flits: 143999 144047 144053 144071 144074 144083 144086 144088 144089 (9 flits)
Class 0:
Remaining flits: 143999 144047 144053 144071 144074 144083 144086 144088 144089 (9 flits)
Measured flits: 143999 144047 144053 144071 144074 144083 144086 144088 144089 (9 flits)
Class 0:
Remaining flits: 143999 144047 144053 144071 144074 144083 144086 144088 144089 (9 flits)
Measured flits: 143999 144047 144053 144071 144074 144083 144086 144088 144089 (9 flits)
Class 0:
Remaining flits: 143999 144047 144053 144071 144074 144083 144086 144088 144089 (9 flits)
Measured flits: 143999 144047 144053 144071 144074 144083 144086 144088 144089 (9 flits)
Class 0:
Remaining flits: 143999 144047 144053 144071 144074 144083 144086 144088 144089 (9 flits)
Measured flits: 143999 144047 144053 144071 144074 144083 144086 144088 144089 (9 flits)
Class 0:
Remaining flits: 143999 144047 144053 144071 144074 144083 144086 144088 144089 (9 flits)
Measured flits: 143999 144047 144053 144071 144074 144083 144086 144088 144089 (9 flits)
Class 0:
Remaining flits: 143999 144047 144053 144071 144074 144083 144086 144088 144089 (9 flits)
Measured flits: 143999 144047 144053 144071 144074 144083 144086 144088 144089 (9 flits)
Class 0:
Remaining flits: 143999 144047 144053 144071 144074 144083 144086 144088 144089 (9 flits)
Measured flits: 143999 144047 144053 144071 144074 144083 144086 144088 144089 (9 flits)
Class 0:
Remaining flits: 143999 144047 144053 144071 144074 144083 144086 144088 144089 (9 flits)
Measured flits: 143999 144047 144053 144071 144074 144083 144086 144088 144089 (9 flits)
Class 0:
Remaining flits: 143999 144047 144053 144071 144074 144083 144086 144088 144089 (9 flits)
Measured flits: 143999 144047 144053 144071 144074 144083 144086 144088 144089 (9 flits)
Class 0:
Remaining flits: 143999 144047 144053 144071 144074 144083 144086 144088 144089 (9 flits)
Measured flits: 143999 144047 144053 144071 144074 144083 144086 144088 144089 (9 flits)
Class 0:
Remaining flits: 143999 144047 144053 144071 144074 144083 144086 144088 144089 (9 flits)
Measured flits: 143999 144047 144053 144071 144074 144083 144086 144088 144089 (9 flits)
Class 0:
Remaining flits: 143999 144047 144053 144071 144074 144083 144086 144088 144089 (9 flits)
Measured flits: 143999 144047 144053 144071 144074 144083 144086 144088 144089 (9 flits)
Class 0:
Remaining flits: 143999 144047 144053 144071 144074 144083 144086 144088 144089 (9 flits)
Measured flits: 143999 144047 144053 144071 144074 144083 144086 144088 144089 (9 flits)
Class 0:
Remaining flits: 143999 144047 144053 144071 144074 144083 144086 144088 144089 (9 flits)
Measured flits: 143999 144047 144053 144071 144074 144083 144086 144088 144089 (9 flits)
Class 0:
Remaining flits: 143999 144047 144053 144071 144074 144083 144086 144088 144089 (9 flits)
Measured flits: 143999 144047 144053 144071 144074 144083 144086 144088 144089 (9 flits)
Class 0:
Remaining flits: 143999 144047 144053 144071 144074 144083 144086 144088 144089 (9 flits)
Measured flits: 143999 144047 144053 144071 144074 144083 144086 144088 144089 (9 flits)
Class 0:
Remaining flits: 143999 144047 144053 144071 144074 144083 144086 144088 144089 (9 flits)
Measured flits: 143999 144047 144053 144071 144074 144083 144086 144088 144089 (9 flits)
Class 0:
Remaining flits: 143999 144047 144053 144071 144074 144083 144086 144088 144089 (9 flits)
Measured flits: 143999 144047 144053 144071 144074 144083 144086 144088 144089 (9 flits)
Class 0:
Remaining flits: 143999 144047 144053 144071 144074 144083 144086 144088 144089 (9 flits)
Measured flits: 143999 144047 144053 144071 144074 144083 144086 144088 144089 (9 flits)
Class 0:
Remaining flits: 143999 144047 144053 144071 144074 144083 144086 144088 144089 (9 flits)
Measured flits: 143999 144047 144053 144071 144074 144083 144086 144088 144089 (9 flits)
Class 0:
Remaining flits: 143999 144047 144053 144071 144074 144083 144086 144088 144089 (9 flits)
Measured flits: 143999 144047 144053 144071 144074 144083 144086 144088 144089 (9 flits)
Class 0:
Remaining flits: 143999 144047 144053 144071 144074 144083 144086 144088 144089 (9 flits)
Measured flits: 143999 144047 144053 144071 144074 144083 144086 144088 144089 (9 flits)
Class 0:
Remaining flits: 143999 144047 144053 144071 144074 144083 144086 144088 144089 (9 flits)
Measured flits: 143999 144047 144053 144071 144074 144083 144086 144088 144089 (9 flits)
Class 0:
Remaining flits: 143999 144047 144053 144071 144074 144083 144086 144088 144089 (9 flits)
Measured flits: 143999 144047 144053 144071 144074 144083 144086 144088 144089 (9 flits)
Class 0:
Remaining flits: 143999 144047 144053 144071 144074 144083 144086 144088 144089 (9 flits)
Measured flits: 143999 144047 144053 144071 144074 144083 144086 144088 144089 (9 flits)
Class 0:
Remaining flits: 143999 144047 144053 144071 144074 144083 144086 144088 144089 (9 flits)
Measured flits: 143999 144047 144053 144071 144074 144083 144086 144088 144089 (9 flits)
Class 0:
Remaining flits: 143999 144047 144053 144071 144074 144083 144086 144088 144089 (9 flits)
Measured flits: 143999 144047 144053 144071 144074 144083 144086 144088 144089 (9 flits)
Class 0:
Remaining flits: 143999 144047 144053 144071 144074 144083 144086 144088 144089 (9 flits)
Measured flits: 143999 144047 144053 144071 144074 144083 144086 144088 144089 (9 flits)
Class 0:
Remaining flits: 143999 144047 144053 144071 144074 144083 144086 144088 144089 (9 flits)
Measured flits: 143999 144047 144053 144071 144074 144083 144086 144088 144089 (9 flits)
Class 0:
Remaining flits: 143999 144047 144053 144071 144074 144083 144086 144088 144089 (9 flits)
Measured flits: 143999 144047 144053 144071 144074 144083 144086 144088 144089 (9 flits)
Class 0:
Remaining flits: 143999 144047 144053 144071 144074 144083 144086 144088 144089 (9 flits)
Measured flits: 143999 144047 144053 144071 144074 144083 144086 144088 144089 (9 flits)
Class 0:
Remaining flits: 143999 144047 144053 144071 144074 144083 144086 144088 144089 (9 flits)
Measured flits: 143999 144047 144053 144071 144074 144083 144086 144088 144089 (9 flits)
Class 0:
Remaining flits: 143999 144047 144053 144071 144074 144083 144086 144088 144089 (9 flits)
Measured flits: 143999 144047 144053 144071 144074 144083 144086 144088 144089 (9 flits)
Class 0:
Remaining flits: 143999 144047 144053 144071 144074 144083 144086 144088 144089 (9 flits)
Measured flits: 143999 144047 144053 144071 144074 144083 144086 144088 144089 (9 flits)
Class 0:
Remaining flits: 143999 144047 144053 144071 144074 144083 144086 144088 144089 (9 flits)
Measured flits: 143999 144047 144053 144071 144074 144083 144086 144088 144089 (9 flits)
Class 0:
Remaining flits: 143999 144047 144053 144071 144074 144083 144086 144088 144089 (9 flits)
Measured flits: 143999 144047 144053 144071 144074 144083 144086 144088 144089 (9 flits)
Class 0:
Remaining flits: 143999 144047 144053 144071 144074 144083 144086 144088 144089 (9 flits)
Measured flits: 143999 144047 144053 144071 144074 144083 144086 144088 144089 (9 flits)
Class 0:
Remaining flits: 143999 144047 144053 144071 144074 144083 144086 144088 144089 (9 flits)
Measured flits: 143999 144047 144053 144071 144074 144083 144086 144088 144089 (9 flits)
Class 0:
Remaining flits: 143999 144047 144053 144071 144074 144083 144086 144088 144089 (9 flits)
Measured flits: 143999 144047 144053 144071 144074 144083 144086 144088 144089 (9 flits)
Class 0:
Remaining flits: 143999 144047 144053 144071 144074 144083 144086 144088 144089 (9 flits)
Measured flits: 143999 144047 144053 144071 144074 144083 144086 144088 144089 (9 flits)
Class 0:
Remaining flits: 143999 144047 144053 144071 144074 144083 144086 144088 144089 (9 flits)
Measured flits: 143999 144047 144053 144071 144074 144083 144086 144088 144089 (9 flits)
Class 0:
Remaining flits: 143999 144047 144053 144071 144074 144083 144086 144088 144089 (9 flits)
Measured flits: 143999 144047 144053 144071 144074 144083 144086 144088 144089 (9 flits)
Class 0:
Remaining flits: 143999 144047 144053 144071 144074 144083 144086 144088 144089 (9 flits)
Measured flits: 143999 144047 144053 144071 144074 144083 144086 144088 144089 (9 flits)
Class 0:
Remaining flits: 143999 144047 144053 144071 144074 144083 144086 144088 144089 (9 flits)
Measured flits: 143999 144047 144053 144071 144074 144083 144086 144088 144089 (9 flits)
Class 0:
Remaining flits: 143999 144047 144053 144071 144074 144083 144086 144088 144089 (9 flits)
Measured flits: 143999 144047 144053 144071 144074 144083 144086 144088 144089 (9 flits)
Class 0:
Remaining flits: 143999 144047 144053 144071 144074 144083 144086 144088 144089 (9 flits)
Measured flits: 143999 144047 144053 144071 144074 144083 144086 144088 144089 (9 flits)
Class 0:
Remaining flits: 143999 144047 144053 144071 144074 144083 144086 144088 144089 (9 flits)
Measured flits: 143999 144047 144053 144071 144074 144083 144086 144088 144089 (9 flits)
Class 0:
Remaining flits: 143999 144047 144053 144071 144074 144083 144086 144088 144089 (9 flits)
Measured flits: 143999 144047 144053 144071 144074 144083 144086 144088 144089 (9 flits)
Class 0:
Remaining flits: 143999 144047 144053 144071 144074 144083 144086 144088 144089 (9 flits)
Measured flits: 143999 144047 144053 144071 144074 144083 144086 144088 144089 (9 flits)
Class 0:
Remaining flits: 143999 144047 144053 144071 144074 144083 144086 144088 144089 (9 flits)
Measured flits: 143999 144047 144053 144071 144074 144083 144086 144088 144089 (9 flits)
Class 0:
Remaining flits: 143999 144047 144053 144071 144074 144083 144086 144088 144089 (9 flits)
Measured flits: 143999 144047 144053 144071 144074 144083 144086 144088 144089 (9 flits)
Time taken is 61000 cycles
====== Traffic class 0 ======

Total number of flits generated = 144096, changed lanes = 0
Overall minimum packet latency = 24 (1 samples)
Overall average packet latency = 55.5849 (1 samples)
Overall maximum packet latency = 216 (1 samples)
Overall minimum network latency = 25 (1 samples)
Overall average network latency = 52.2339 (1 samples)
Overall maximum network latency = 213 (1 samples)
Overall minimum flit latency = 22 (1 samples)
Overall average flit latency = 46.1163 (1 samples)
Overall maximum flit latency = 211 (1 samples)
Overall minimum fragmentation = 0 (1 samples)
Overall average fragmentation = 5.4067 (1 samples)
Overall maximum fragmentation = 171 (1 samples)
Overall minimum injected packet rate = 0.0487 (1 samples)
Overall average injected packet rate = 0.0501833 (1 samples)
Overall maximum injected packet rate = 0.0518667 (1 samples)
Overall minimum accepted packet rate = 0.0488333 (1 samples)
Overall average accepted packet rate = 0.0501521 (1 samples)
Overall maximum accepted packet rate = 0.0518 (1 samples)
Overall minimum injected flit rate = 0.146133 (1 samples)
Overall average injected flit rate = 0.150546 (1 samples)
Overall maximum injected flit rate = 0.1556 (1 samples)
Overall minimum accepted flit rate = 0.146433 (1 samples)
Overall average accepted flit rate = 0.15046 (1 samples)
Overall maximum accepted flit rate = 0.1554 (1 samples)
Overall average injected packet size = 2.99992 (1 samples)
Overall average accepted packet size = 3.00008 (1 samples)
Overall average hops = 3.99423 (1 samples)
Overall throughput of the network (flits/cycle) = 4.8029
Overall throughput of the network (packets/cycle) = 1.6008
Total run time 565.437
