make: Nothing to be done for 'all'.
Master: Running timer....
Master: Running SRC....
BEGIN Configuration File: ./examples/bitrev
// Topology

topology = mesh;
k = 4;
n = 2;

// Routing
routing_function = dor;

// Flow control
num_vcs     = 1;
vc_buf_size = 4;
wait_for_tail_credit = 0;

// Router architecture
vc_allocator = islip;
sw_allocator = islip;
alloc_iters  = 1;

credit_delay   = 1;
routing_delay  = 1;
vc_alloc_delay = 1;
sw_alloc_delay = 1;

input_speedup     = 1;
output_speedup    = 1;
internal_speedup  = 1.0;

vc_busy_when_full = 0;

// Traffic
traffic = neighbor;
packet_size = 5;

// Simulation
sim_type = throughput;

injection_rate = 0.05;

END Configuration File: ./examples/bitrev
===== Time: 1000 =====
Class 0:
Minimum packet latency = 30
Average packet latency = 91.6119
Maximum packet latency = 348
Minimum network latency = 31
Average network latency = 54.3953
Maximum network latency = 108
Slowest packet = 19
Minimum flit latency = 22
Average flit latency = 43.1628
Maximum flit latency = 92
Slowest flit = 515
Minimum fragmentation = 3
Average fragmentation = 4.98547
Maximum fragmentation = 40
Minimum injected packet rate = 0.035 (at node 10)
Average injected packet rate = 0.0456875
Maximum injected packet rate = 0.057 (at node 5)
Minimum accepted packet rate = 0.032 (at node 15)
Average accepted packet rate = 0.043
Maximum accepted packet rate = 0.055 (at node 10)
Minimum injected flit rate = 0.172 (at node 10)
Average injected flit rate = 0.226687
Maximum injected flit rate = 0.283 (at node 5)
Minimum accepted flit rate = 0.16 (at node 15)
Average accepted flit rate = 0.216125
Maximum accepted flit rate = 0.275 (at node 10)
Total number of injected packets = 731
Total number of injected flits = 3627
Average injected packet length = 4.9617
Total number of accepted packets = 688
Total number of accepted flits = 3458
Average accepted packet length = 5.02616
Total in-flight flits = 197 (0 measured)
===== Time: 2000 =====
Class 0:
Minimum packet latency = 30
Average packet latency = 114.027
Maximum packet latency = 492
Minimum network latency = 31
Average network latency = 55.4019
Maximum network latency = 110
Slowest packet = 19
Minimum flit latency = 22
Average flit latency = 43.7695
Maximum flit latency = 93
Slowest flit = 3565
Minimum fragmentation = 2
Average fragmentation = 4.97531
Maximum fragmentation = 40
Minimum injected packet rate = 0.038 (at node 10)
Average injected packet rate = 0.046875
Maximum injected packet rate = 0.0555 (at node 6)
Minimum accepted packet rate = 0.0365 (at node 15)
Average accepted packet rate = 0.0455625
Maximum accepted packet rate = 0.054 (at node 11)
Minimum injected flit rate = 0.1885 (at node 10)
Average injected flit rate = 0.2335
Maximum injected flit rate = 0.276 (at node 6)
Minimum accepted flit rate = 0.1825 (at node 15)
Average accepted flit rate = 0.227937
Maximum accepted flit rate = 0.2705 (at node 11)
Total number of injected packets = 1500
Total number of injected flits = 7472
Average injected packet length = 4.98133
Total number of accepted packets = 1458
Total number of accepted flits = 7294
Average accepted packet length = 5.00274
Total in-flight flits = 206 (0 measured)
===== Time: 3000 =====
Class 0:
Minimum packet latency = 31
Average packet latency = 174.831
Maximum packet latency = 692
Minimum network latency = 32
Average network latency = 56.1209
Maximum network latency = 106
Slowest packet = 1463
Minimum flit latency = 22
Average flit latency = 44.078
Maximum flit latency = 92
Slowest flit = 7775
Minimum fragmentation = 2
Average fragmentation = 4.79584
Maximum fragmentation = 14
Minimum injected packet rate = 0.038 (at node 14)
Average injected packet rate = 0.0485
Maximum injected packet rate = 0.059 (at node 4)
Minimum accepted packet rate = 0.038 (at node 3)
Average accepted packet rate = 0.0480625
Maximum accepted packet rate = 0.059 (at node 9)
Minimum injected flit rate = 0.191 (at node 14)
Average injected flit rate = 0.241625
Maximum injected flit rate = 0.295 (at node 4)
Minimum accepted flit rate = 0.19 (at node 3)
Average accepted flit rate = 0.24125
Maximum accepted flit rate = 0.295 (at node 9)
Total number of injected packets = 776
Total number of injected flits = 3866
Average injected packet length = 4.98196
Total number of accepted packets = 769
Total number of accepted flits = 3860
Average accepted packet length = 5.01951
Total in-flight flits = 226 (0 measured)
===== Time: 4000 =====
Class 0:
Minimum packet latency = 30
Average packet latency = 219.986
Maximum packet latency = 855
Minimum network latency = 31
Average network latency = 56.592
Maximum network latency = 131
Slowest packet = 2276
Minimum flit latency = 22
Average flit latency = 44.723
Maximum flit latency = 111
Slowest flit = 13494
Minimum fragmentation = 2
Average fragmentation = 5.02996
Maximum fragmentation = 61
Minimum injected packet rate = 0.038 (at node 1)
Average injected packet rate = 0.0463125
Maximum injected packet rate = 0.052 (at node 4)
Minimum accepted packet rate = 0.039 (at node 6)
Average accepted packet rate = 0.046875
Maximum accepted packet rate = 0.055 (at node 11)
Minimum injected flit rate = 0.193 (at node 1)
Average injected flit rate = 0.2325
Maximum injected flit rate = 0.263 (at node 6)
Minimum accepted flit rate = 0.195 (at node 6)
Average accepted flit rate = 0.234187
Maximum accepted flit rate = 0.274 (at node 11)
Total number of injected packets = 741
Total number of injected flits = 3720
Average injected packet length = 5.02024
Total number of accepted packets = 750
Total number of accepted flits = 3747
Average accepted packet length = 4.996
Total in-flight flits = 184 (184 measured)
===== Time: 5000 =====
Class 0:
Minimum packet latency = 30
Average packet latency = 233.176
Maximum packet latency = 951
Minimum network latency = 31
Average network latency = 56.6019
Maximum network latency = 131
Slowest packet = 2276
Minimum flit latency = 22
Average flit latency = 44.655
Maximum flit latency = 112
Slowest flit = 16549
Minimum fragmentation = 2
Average fragmentation = 4.9829
Maximum fragmentation = 71
Minimum injected packet rate = 0.0435 (at node 1)
Average injected packet rate = 0.0470312
Maximum injected packet rate = 0.0505 (at node 4)
Minimum accepted packet rate = 0.0435 (at node 3)
Average accepted packet rate = 0.0472187
Maximum accepted packet rate = 0.051 (at node 9)
Minimum injected flit rate = 0.219 (at node 1)
Average injected flit rate = 0.235625
Maximum injected flit rate = 0.253 (at node 4)
Minimum accepted flit rate = 0.2185 (at node 6)
Average accepted flit rate = 0.236344
Maximum accepted flit rate = 0.255 (at node 9)
Total number of injected packets = 1505
Total number of injected flits = 7540
Average injected packet length = 5.00997
Total number of accepted packets = 1511
Total number of accepted flits = 7563
Average accepted packet length = 5.00529
Total in-flight flits = 188 (188 measured)
===== Time: 6000 =====
Class 0:
Minimum packet latency = 30
Average packet latency = 238.132
Maximum packet latency = 951
Minimum network latency = 31
Average network latency = 56.687
Maximum network latency = 131
Slowest packet = 2276
Minimum flit latency = 22
Average flit latency = 44.6696
Maximum flit latency = 112
Slowest flit = 16549
Minimum fragmentation = 2
Average fragmentation = 4.93283
Maximum fragmentation = 71
Minimum injected packet rate = 0.0436667 (at node 1)
Average injected packet rate = 0.0473333
Maximum injected packet rate = 0.052 (at node 0)
Minimum accepted packet rate = 0.044 (at node 6)
Average accepted packet rate = 0.0475417
Maximum accepted packet rate = 0.0523333 (at node 5)
Minimum injected flit rate = 0.218333 (at node 1)
Average injected flit rate = 0.237042
Maximum injected flit rate = 0.261 (at node 0)
Minimum accepted flit rate = 0.22 (at node 6)
Average accepted flit rate = 0.237521
Maximum accepted flit rate = 0.261 (at node 5)
Total number of injected packets = 2272
Total number of injected flits = 11378
Average injected packet length = 5.00792
Total number of accepted packets = 2282
Total number of accepted flits = 11401
Average accepted packet length = 4.99606
Total in-flight flits = 185 (185 measured)
Draining remaining packets ...
Class 0:
Remaining flits: 22495 22496 22497 22498 22499 22552 22553 22554 22555 22556 [...] (146 flits)
Measured flits: 22495 22496 22497 22498 22499 22552 22553 22554 22555 22556 [...] (146 flits)
Class 0:
Remaining flits: 22496 22497 22498 22499 22556 22557 22558 22559 22569 22579 [...] (109 flits)
Measured flits: 22496 22497 22498 22499 22556 22557 22558 22559 22569 22579 [...] (109 flits)
Class 0:
Remaining flits: 22580 22581 22582 22583 22584 22622 22623 22624 22630 22631 [...] (76 flits)
Measured flits: 22580 22581 22582 22583 22584 22622 22623 22624 22630 22631 [...] (76 flits)
Class 0:
Remaining flits: 22580 22581 22582 22583 22584 22630 22631 22632 22633 22634 [...] (56 flits)
Measured flits: 22580 22581 22582 22583 22584 22630 22631 22632 22633 22634 [...] (56 flits)
Class 0:
Remaining flits: 22634 22650 22651 22652 22653 22654 22705 22706 22707 22708 [...] (32 flits)
Measured flits: 22634 22650 22651 22652 22653 22654 22705 22706 22707 22708 [...] (32 flits)
Class 0:
Remaining flits: 22650 22651 22652 22653 22654 22705 22706 22707 22708 22709 [...] (22 flits)
Measured flits: 22650 22651 22652 22653 22654 22705 22706 22707 22708 22709 [...] (22 flits)
Class 0:
Remaining flits: 22708 22709 22725 22726 22727 22728 22729 (7 flits)
Measured flits: 22708 22709 22725 22726 22727 22728 22729 (7 flits)
Class 0:
Remaining flits: 22725 22726 22727 22728 22729 (5 flits)
Measured flits: 22725 22726 22727 22728 22729 (5 flits)
Class 0:
Remaining flits: 22729 (1 flits)
Measured flits: 22729 (1 flits)
Class 0:
Remaining flits: (0 flits)
Measured flits: (0 flits)
Class 0:
Remaining flits: (0 flits)
Measured flits: (0 flits)
Class 0:
Remaining flits: (0 flits)
Measured flits: (0 flits)
Class 0:
Remaining flits: (0 flits)
Measured flits: (0 flits)
Class 0:
Remaining flits: (0 flits)
Measured flits: (0 flits)
Class 0:
Remaining flits: (0 flits)
Measured flits: (0 flits)
Class 0:
Remaining flits: (0 flits)
Measured flits: (0 flits)
Class 0:
Remaining flits: (0 flits)
Measured flits: (0 flits)
Class 0:
Remaining flits: (0 flits)
Measured flits: (0 flits)
Class 0:
Remaining flits: (0 flits)
Measured flits: (0 flits)
Class 0:
Remaining flits: (0 flits)
Measured flits: (0 flits)
Class 0:
Remaining flits: (0 flits)
Measured flits: (0 flits)
Class 0:
Remaining flits: (0 flits)
Measured flits: (0 flits)
Class 0:
Remaining flits: (0 flits)
Measured flits: (0 flits)
Class 0:
Remaining flits: (0 flits)
Measured flits: (0 flits)
Class 0:
Remaining flits: (0 flits)
Measured flits: (0 flits)
Class 0:
Remaining flits: (0 flits)
Measured flits: (0 flits)
Class 0:
Remaining flits: (0 flits)
Measured flits: (0 flits)
Class 0:
Remaining flits: (0 flits)
Measured flits: (0 flits)
Class 0:
Remaining flits: (0 flits)
Measured flits: (0 flits)
Class 0:
Remaining flits: (0 flits)
Measured flits: (0 flits)
Class 0:
Remaining flits: (0 flits)
Measured flits: (0 flits)
Class 0:
Remaining flits: (0 flits)
Measured flits: (0 flits)
Class 0:
Remaining flits: (0 flits)
Measured flits: (0 flits)
Class 0:
Remaining flits: (0 flits)
Measured flits: (0 flits)
Class 0:
Remaining flits: (0 flits)
Measured flits: (0 flits)
Class 0:
Remaining flits: (0 flits)
Measured flits: (0 flits)
Class 0:
Remaining flits: (0 flits)
Measured flits: (0 flits)
Class 0:
Remaining flits: (0 flits)
Measured flits: (0 flits)
Class 0:
Remaining flits: (0 flits)
Measured flits: (0 flits)
Class 0:
Remaining flits: (0 flits)
Measured flits: (0 flits)
Class 0:
Remaining flits: (0 flits)
Measured flits: (0 flits)
Class 0:
Remaining flits: (0 flits)
Measured flits: (0 flits)
Class 0:
Remaining flits: (0 flits)
Measured flits: (0 flits)
Class 0:
Remaining flits: (0 flits)
Measured flits: (0 flits)
Class 0:
Remaining flits: (0 flits)
Measured flits: (0 flits)
Class 0:
Remaining flits: (0 flits)
Measured flits: (0 flits)
Class 0:
Remaining flits: (0 flits)
Measured flits: (0 flits)
Class 0:
Remaining flits: (0 flits)
Measured flits: (0 flits)
Class 0:
Remaining flits: (0 flits)
Measured flits: (0 flits)
Class 0:
Remaining flits: (0 flits)
Measured flits: (0 flits)
Class 0:
Remaining flits: (0 flits)
Measured flits: (0 flits)
Class 0:
Remaining flits: (0 flits)
Measured flits: (0 flits)
Class 0:
Remaining flits: (0 flits)
Measured flits: (0 flits)
Class 0:
Remaining flits: (0 flits)
Measured flits: (0 flits)
Class 0:
Remaining flits: (0 flits)
Measured flits: (0 flits)
Class 0:
Remaining flits: (0 flits)
Measured flits: (0 flits)
Class 0:
Remaining flits: (0 flits)
Measured flits: (0 flits)
Class 0:
Remaining flits: (0 flits)
Measured flits: (0 flits)
Class 0:
Remaining flits: (0 flits)
Measured flits: (0 flits)
Class 0:
Remaining flits: (0 flits)
Measured flits: (0 flits)
Class 0:
Remaining flits: (0 flits)
Measured flits: (0 flits)
Class 0:
Remaining flits: (0 flits)
Measured flits: (0 flits)
Class 0:
Remaining flits: (0 flits)
Measured flits: (0 flits)
Class 0:
Remaining flits: (0 flits)
Measured flits: (0 flits)
Class 0:
Remaining flits: (0 flits)
Measured flits: (0 flits)
Class 0:
Remaining flits: (0 flits)
Measured flits: (0 flits)
Class 0:
Remaining flits: (0 flits)
Measured flits: (0 flits)
Class 0:
Remaining flits: (0 flits)
Measured flits: (0 flits)
Class 0:
Remaining flits: (0 flits)
Measured flits: (0 flits)
Class 0:
Remaining flits: (0 flits)
Measured flits: (0 flits)
Class 0:
Remaining flits: (0 flits)
Measured flits: (0 flits)
Class 0:
Remaining flits: (0 flits)
Measured flits: (0 flits)
Class 0:
Remaining flits: (0 flits)
Measured flits: (0 flits)
Class 0:
Remaining flits: (0 flits)
Measured flits: (0 flits)
Class 0:
Remaining flits: (0 flits)
Measured flits: (0 flits)
Class 0:
Remaining flits: (0 flits)
Measured flits: (0 flits)
Class 0:
Remaining flits: (0 flits)
Measured flits: (0 flits)
Class 0:
Remaining flits: (0 flits)
Measured flits: (0 flits)
Class 0:
Remaining flits: (0 flits)
Measured flits: (0 flits)
Class 0:
Remaining flits: (0 flits)
Measured flits: (0 flits)
Class 0:
Remaining flits: (0 flits)
Measured flits: (0 flits)
Class 0:
Remaining flits: (0 flits)
Measured flits: (0 flits)
Class 0:
Remaining flits: (0 flits)
Measured flits: (0 flits)
Class 0:
Remaining flits: (0 flits)
Measured flits: (0 flits)
Class 0:
Remaining flits: (0 flits)
Measured flits: (0 flits)
Class 0:
Remaining flits: (0 flits)
Measured flits: (0 flits)
Class 0:
Remaining flits: (0 flits)
Measured flits: (0 flits)
Class 0:
Remaining flits: (0 flits)
Measured flits: (0 flits)
Class 0:
Remaining flits: (0 flits)
Measured flits: (0 flits)
Class 0:
Remaining flits: (0 flits)
Measured flits: (0 flits)
Class 0:
Remaining flits: (0 flits)
Measured flits: (0 flits)
Class 0:
Remaining flits: (0 flits)
Measured flits: (0 flits)
Class 0:
Remaining flits: (0 flits)
Measured flits: (0 flits)
Class 0:
Remaining flits: (0 flits)
Measured flits: (0 flits)
Class 0:
Remaining flits: (0 flits)
Measured flits: (0 flits)
Class 0:
Remaining flits: (0 flits)
Measured flits: (0 flits)
Class 0:
Remaining flits: (0 flits)
Measured flits: (0 flits)
Class 0:
Remaining flits: (0 flits)
Measured flits: (0 flits)
Class 0:
Remaining flits: (0 flits)
Measured flits: (0 flits)
Class 0:
Remaining flits: (0 flits)
Measured flits: (0 flits)
Class 0:
Remaining flits: (0 flits)
Measured flits: (0 flits)
Time taken is 7000 cycles
====== Traffic class 0 ======

Total number of flits generated = 22740, changed lanes = 0
Overall minimum packet latency = 30 (1 samples)
Overall average packet latency = 239.129 (1 samples)
Overall maximum packet latency = 951 (1 samples)
Overall minimum network latency = 31 (1 samples)
Overall average network latency = 56.8543 (1 samples)
Overall maximum network latency = 131 (1 samples)
Overall minimum flit latency = 22 (1 samples)
Overall average flit latency = 44.7991 (1 samples)
Overall maximum flit latency = 112 (1 samples)
Overall minimum fragmentation = 2 (1 samples)
Overall average fragmentation = 4.94146 (1 samples)
Overall maximum fragmentation = 71 (1 samples)
Overall minimum injected packet rate = 0.0436667 (1 samples)
Overall average injected packet rate = 0.0473333 (1 samples)
Overall maximum injected packet rate = 0.052 (1 samples)
Overall minimum accepted packet rate = 0.044 (1 samples)
Overall average accepted packet rate = 0.0475417 (1 samples)
Overall maximum accepted packet rate = 0.0523333 (1 samples)
Overall minimum injected flit rate = 0.218333 (1 samples)
Overall average injected flit rate = 0.237042 (1 samples)
Overall maximum injected flit rate = 0.261 (1 samples)
Overall minimum accepted flit rate = 0.22 (1 samples)
Overall average accepted flit rate = 0.237521 (1 samples)
Overall maximum accepted flit rate = 0.261 (1 samples)
Overall average injected packet size = 5.00792 (1 samples)
Overall average accepted packet size = 4.99606 (1 samples)
Overall average hops = 3.97975 (1 samples)
Overall throughput of the network (flits/cycle) = 7.58
Overall throughput of the network (packets/cycle) = 1.516
Total run time 1946.74
