make: Nothing to be done for 'all'.
Master: Running timer....
Master: Running SRC....
BEGIN Configuration File: ./examples/bitrev
// Topology

topology = mesh;
k = 4;
n = 2;

// Routing
routing_function = dor;

// Flow control
num_vcs     = 4;
vc_buf_size = 4;
wait_for_tail_credit = 0;

// Router architecture
vc_allocator = islip;
sw_allocator = islip;
alloc_iters  = 1;

credit_delay   = 1;
routing_delay  = 1;
vc_alloc_delay = 1;
sw_alloc_delay = 1;

input_speedup     = 1;
output_speedup    = 1;
internal_speedup  = 1.0;

vc_busy_when_full = 0;

// Traffic
traffic = uniform;
packet_size = 1;

// Simulation
sim_type = throughput;

injection_rate = 0.05;

END Configuration File: ./examples/bitrev
===== Time: 1000 =====
Class 0:
Minimum packet latency = 8
Average packet latency = 41.7053
Maximum packet latency = 134
Minimum network latency = 9
Average network latency = 42.7053
Maximum network latency = 135
Slowest packet = 288
Minimum flit latency = 9
Average flit latency = 42.7053
Maximum flit latency = 135
Slowest flit = 288
Minimum fragmentation = 0
Average fragmentation = 0
Maximum fragmentation = 0
Minimum injected packet rate = 0.041 (at node 5)
Average injected packet rate = 0.048875
Maximum injected packet rate = 0.054 (at node 1)
Minimum accepted packet rate = 0.034 (at node 6)
Average accepted packet rate = 0.046875
Maximum accepted packet rate = 0.057 (at node 5)
Minimum injected flit rate = 0.041 (at node 5)
Average injected flit rate = 0.048875
Maximum injected flit rate = 0.054 (at node 1)
Minimum accepted flit rate = 0.034 (at node 6)
Average accepted flit rate = 0.046875
Maximum accepted flit rate = 0.057 (at node 5)
Total number of injected packets = 782
Total number of injected flits = 782
Average injected packet length = 1
Total number of accepted packets = 750
Total number of accepted flits = 750
Average accepted packet length = 1
Total in-flight flits = 32 (0 measured)
===== Time: 2000 =====
Class 0:
Minimum packet latency = 8
Average packet latency = 41.6654
Maximum packet latency = 145
Minimum network latency = 9
Average network latency = 42.6654
Maximum network latency = 146
Slowest packet = 919
Minimum flit latency = 9
Average flit latency = 42.6654
Maximum flit latency = 146
Slowest flit = 919
Minimum fragmentation = 0
Average fragmentation = 0
Maximum fragmentation = 0
Minimum injected packet rate = 0.0395 (at node 8)
Average injected packet rate = 0.049125
Maximum injected packet rate = 0.057 (at node 12)
Minimum accepted packet rate = 0.0415 (at node 11)
Average accepted packet rate = 0.0481875
Maximum accepted packet rate = 0.052 (at node 1)
Minimum injected flit rate = 0.0395 (at node 8)
Average injected flit rate = 0.049125
Maximum injected flit rate = 0.057 (at node 12)
Minimum accepted flit rate = 0.0415 (at node 11)
Average accepted flit rate = 0.0481875
Maximum accepted flit rate = 0.052 (at node 1)
Total number of injected packets = 1572
Total number of injected flits = 1572
Average injected packet length = 1
Total number of accepted packets = 1542
Total number of accepted flits = 1542
Average accepted packet length = 1
Total in-flight flits = 30 (0 measured)
===== Time: 3000 =====
Class 0:
Minimum packet latency = 8
Average packet latency = 42.7919
Maximum packet latency = 131
Minimum network latency = 9
Average network latency = 43.7919
Maximum network latency = 132
Slowest packet = 2025
Minimum flit latency = 9
Average flit latency = 43.7919
Maximum flit latency = 132
Slowest flit = 2025
Minimum fragmentation = 0
Average fragmentation = 0
Maximum fragmentation = 0
Minimum injected packet rate = 0.045 (at node 4)
Average injected packet rate = 0.0518125
Maximum injected packet rate = 0.059 (at node 1)
Minimum accepted packet rate = 0.037 (at node 5)
Average accepted packet rate = 0.0510625
Maximum accepted packet rate = 0.062 (at node 12)
Minimum injected flit rate = 0.045 (at node 4)
Average injected flit rate = 0.0518125
Maximum injected flit rate = 0.059 (at node 1)
Minimum accepted flit rate = 0.037 (at node 5)
Average accepted flit rate = 0.0510625
Maximum accepted flit rate = 0.062 (at node 12)
Total number of injected packets = 829
Total number of injected flits = 829
Average injected packet length = 1
Total number of accepted packets = 817
Total number of accepted flits = 817
Average accepted packet length = 1
Total in-flight flits = 42 (0 measured)
===== Time: 4000 =====
Class 0:
Minimum packet latency = 9
Average packet latency = 41.3406
Maximum packet latency = 105
Minimum network latency = 10
Average network latency = 42.3406
Maximum network latency = 106
Slowest packet = 2411
Minimum flit latency = 10
Average flit latency = 42.8776
Maximum flit latency = 106
Slowest flit = 2411
Minimum fragmentation = 0
Average fragmentation = 0
Maximum fragmentation = 0
Minimum injected packet rate = 0.035 (at node 0)
Average injected packet rate = 0.0480625
Maximum injected packet rate = 0.057 (at node 9)
Minimum accepted packet rate = 0.033 (at node 2)
Average accepted packet rate = 0.0485
Maximum accepted packet rate = 0.062 (at node 15)
Minimum injected flit rate = 0.035 (at node 0)
Average injected flit rate = 0.0480625
Maximum injected flit rate = 0.057 (at node 9)
Minimum accepted flit rate = 0.033 (at node 2)
Average accepted flit rate = 0.0485
Maximum accepted flit rate = 0.062 (at node 15)
Total number of injected packets = 769
Total number of injected flits = 769
Average injected packet length = 1
Total number of accepted packets = 776
Total number of accepted flits = 776
Average accepted packet length = 1
Total in-flight flits = 35 (35 measured)
===== Time: 5000 =====
Class 0:
Minimum packet latency = 8
Average packet latency = 41.5862
Maximum packet latency = 105
Minimum network latency = 9
Average network latency = 42.5862
Maximum network latency = 106
Slowest packet = 2411
Minimum flit latency = 9
Average flit latency = 42.8505
Maximum flit latency = 106
Slowest flit = 2411
Minimum fragmentation = 0
Average fragmentation = 0
Maximum fragmentation = 0
Minimum injected packet rate = 0.0365 (at node 0)
Average injected packet rate = 0.0476875
Maximum injected packet rate = 0.0575 (at node 9)
Minimum accepted packet rate = 0.037 (at node 4)
Average accepted packet rate = 0.0480625
Maximum accepted packet rate = 0.058 (at node 8)
Minimum injected flit rate = 0.0365 (at node 0)
Average injected flit rate = 0.0476875
Maximum injected flit rate = 0.0575 (at node 9)
Minimum accepted flit rate = 0.037 (at node 4)
Average accepted flit rate = 0.0480625
Maximum accepted flit rate = 0.058 (at node 8)
Total number of injected packets = 1526
Total number of injected flits = 1526
Average injected packet length = 1
Total number of accepted packets = 1538
Total number of accepted flits = 1538
Average accepted packet length = 1
Total in-flight flits = 30 (30 measured)
===== Time: 6000 =====
Class 0:
Minimum packet latency = 8
Average packet latency = 41.8674
Maximum packet latency = 108
Minimum network latency = 9
Average network latency = 42.8674
Maximum network latency = 109
Slowest packet = 4335
Minimum flit latency = 9
Average flit latency = 43.0375
Maximum flit latency = 109
Slowest flit = 4335
Minimum fragmentation = 0
Average fragmentation = 0
Maximum fragmentation = 0
Minimum injected packet rate = 0.041 (at node 0)
Average injected packet rate = 0.0481667
Maximum injected packet rate = 0.057 (at node 15)
Minimum accepted packet rate = 0.0363333 (at node 4)
Average accepted packet rate = 0.0483125
Maximum accepted packet rate = 0.0546667 (at node 8)
Minimum injected flit rate = 0.041 (at node 0)
Average injected flit rate = 0.0481667
Maximum injected flit rate = 0.057 (at node 15)
Minimum accepted flit rate = 0.0363333 (at node 4)
Average accepted flit rate = 0.0483125
Maximum accepted flit rate = 0.0546667 (at node 8)
Total number of injected packets = 2312
Total number of injected flits = 2312
Average injected packet length = 1
Total number of accepted packets = 2319
Total number of accepted flits = 2319
Average accepted packet length = 1
Total in-flight flits = 35 (35 measured)
===== Time: 7000 =====
Class 0:
Minimum packet latency = 8
Average packet latency = 41.9545
Maximum packet latency = 146
Minimum network latency = 9
Average network latency = 42.9545
Maximum network latency = 147
Slowest packet = 4785
Minimum flit latency = 9
Average flit latency = 43.079
Maximum flit latency = 147
Slowest flit = 4785
Minimum fragmentation = 0
Average fragmentation = 0
Maximum fragmentation = 0
Minimum injected packet rate = 0.04275 (at node 0)
Average injected packet rate = 0.0488906
Maximum injected packet rate = 0.054 (at node 15)
Minimum accepted packet rate = 0.039 (at node 4)
Average accepted packet rate = 0.0490781
Maximum accepted packet rate = 0.05575 (at node 11)
Minimum injected flit rate = 0.04275 (at node 0)
Average injected flit rate = 0.0488906
Maximum injected flit rate = 0.054 (at node 15)
Minimum accepted flit rate = 0.039 (at node 4)
Average accepted flit rate = 0.0490781
Maximum accepted flit rate = 0.05575 (at node 11)
Total number of injected packets = 3129
Total number of injected flits = 3129
Average injected packet length = 1
Total number of accepted packets = 3141
Total number of accepted flits = 3141
Average accepted packet length = 1
Total in-flight flits = 30 (30 measured)
Draining remaining packets ...
Class 0:
Remaining flits: 5498 5501 5505 5507 5510 5512 5513 5514 5515 5516 [...] (20 flits)
Measured flits: 5498 5501 5505 5507 5510 5512 5513 5514 5515 5516 [...] (20 flits)
Class 0:
Remaining flits: 5498 5501 5512 5513 5514 5515 5516 5519 5522 5523 [...] (14 flits)
Measured flits: 5498 5501 5512 5513 5514 5515 5516 5519 5522 5523 [...] (14 flits)
Class 0:
Remaining flits: 5498 5512 5513 5515 5522 5523 5525 5527 5528 5529 (10 flits)
Measured flits: 5498 5512 5513 5515 5522 5523 5525 5527 5528 5529 (10 flits)
Class 0:
Remaining flits: 5515 5523 5525 5527 5528 5529 (6 flits)
Measured flits: 5515 5523 5525 5527 5528 5529 (6 flits)
Class 0:
Remaining flits: 5523 5525 5527 5528 (4 flits)
Measured flits: 5523 5525 5527 5528 (4 flits)
Class 0:
Remaining flits: 5528 (1 flits)
Measured flits: 5528 (1 flits)
Class 0:
Remaining flits: (0 flits)
Measured flits: (0 flits)
Class 0:
Remaining flits: (0 flits)
Measured flits: (0 flits)
Class 0:
Remaining flits: (0 flits)
Measured flits: (0 flits)
Class 0:
Remaining flits: (0 flits)
Measured flits: (0 flits)
Class 0:
Remaining flits: (0 flits)
Measured flits: (0 flits)
Class 0:
Remaining flits: (0 flits)
Measured flits: (0 flits)
Class 0:
Remaining flits: (0 flits)
Measured flits: (0 flits)
Class 0:
Remaining flits: (0 flits)
Measured flits: (0 flits)
Class 0:
Remaining flits: (0 flits)
Measured flits: (0 flits)
Class 0:
Remaining flits: (0 flits)
Measured flits: (0 flits)
Class 0:
Remaining flits: (0 flits)
Measured flits: (0 flits)
Class 0:
Remaining flits: (0 flits)
Measured flits: (0 flits)
Class 0:
Remaining flits: (0 flits)
Measured flits: (0 flits)
Class 0:
Remaining flits: (0 flits)
Measured flits: (0 flits)
Class 0:
Remaining flits: (0 flits)
Measured flits: (0 flits)
Class 0:
Remaining flits: (0 flits)
Measured flits: (0 flits)
Class 0:
Remaining flits: (0 flits)
Measured flits: (0 flits)
Class 0:
Remaining flits: (0 flits)
Measured flits: (0 flits)
Class 0:
Remaining flits: (0 flits)
Measured flits: (0 flits)
Class 0:
Remaining flits: (0 flits)
Measured flits: (0 flits)
Class 0:
Remaining flits: (0 flits)
Measured flits: (0 flits)
Class 0:
Remaining flits: (0 flits)
Measured flits: (0 flits)
Class 0:
Remaining flits: (0 flits)
Measured flits: (0 flits)
Class 0:
Remaining flits: (0 flits)
Measured flits: (0 flits)
Class 0:
Remaining flits: (0 flits)
Measured flits: (0 flits)
Class 0:
Remaining flits: (0 flits)
Measured flits: (0 flits)
Class 0:
Remaining flits: (0 flits)
Measured flits: (0 flits)
Class 0:
Remaining flits: (0 flits)
Measured flits: (0 flits)
Class 0:
Remaining flits: (0 flits)
Measured flits: (0 flits)
Class 0:
Remaining flits: (0 flits)
Measured flits: (0 flits)
Class 0:
Remaining flits: (0 flits)
Measured flits: (0 flits)
Class 0:
Remaining flits: (0 flits)
Measured flits: (0 flits)
Class 0:
Remaining flits: (0 flits)
Measured flits: (0 flits)
Class 0:
Remaining flits: (0 flits)
Measured flits: (0 flits)
Class 0:
Remaining flits: (0 flits)
Measured flits: (0 flits)
Class 0:
Remaining flits: (0 flits)
Measured flits: (0 flits)
Class 0:
Remaining flits: (0 flits)
Measured flits: (0 flits)
Class 0:
Remaining flits: (0 flits)
Measured flits: (0 flits)
Class 0:
Remaining flits: (0 flits)
Measured flits: (0 flits)
Class 0:
Remaining flits: (0 flits)
Measured flits: (0 flits)
Class 0:
Remaining flits: (0 flits)
Measured flits: (0 flits)
Class 0:
Remaining flits: (0 flits)
Measured flits: (0 flits)
Class 0:
Remaining flits: (0 flits)
Measured flits: (0 flits)
Class 0:
Remaining flits: (0 flits)
Measured flits: (0 flits)
Class 0:
Remaining flits: (0 flits)
Measured flits: (0 flits)
Class 0:
Remaining flits: (0 flits)
Measured flits: (0 flits)
Class 0:
Remaining flits: (0 flits)
Measured flits: (0 flits)
Class 0:
Remaining flits: (0 flits)
Measured flits: (0 flits)
Class 0:
Remaining flits: (0 flits)
Measured flits: (0 flits)
Class 0:
Remaining flits: (0 flits)
Measured flits: (0 flits)
Class 0:
Remaining flits: (0 flits)
Measured flits: (0 flits)
Class 0:
Remaining flits: (0 flits)
Measured flits: (0 flits)
Class 0:
Remaining flits: (0 flits)
Measured flits: (0 flits)
Class 0:
Remaining flits: (0 flits)
Measured flits: (0 flits)
Class 0:
Remaining flits: (0 flits)
Measured flits: (0 flits)
Class 0:
Remaining flits: (0 flits)
Measured flits: (0 flits)
Class 0:
Remaining flits: (0 flits)
Measured flits: (0 flits)
Class 0:
Remaining flits: (0 flits)
Measured flits: (0 flits)
Class 0:
Remaining flits: (0 flits)
Measured flits: (0 flits)
Class 0:
Remaining flits: (0 flits)
Measured flits: (0 flits)
Class 0:
Remaining flits: (0 flits)
Measured flits: (0 flits)
Class 0:
Remaining flits: (0 flits)
Measured flits: (0 flits)
Class 0:
Remaining flits: (0 flits)
Measured flits: (0 flits)
Class 0:
Remaining flits: (0 flits)
Measured flits: (0 flits)
Class 0:
Remaining flits: (0 flits)
Measured flits: (0 flits)
Class 0:
Remaining flits: (0 flits)
Measured flits: (0 flits)
Class 0:
Remaining flits: (0 flits)
Measured flits: (0 flits)
Class 0:
Remaining flits: (0 flits)
Measured flits: (0 flits)
Class 0:
Remaining flits: (0 flits)
Measured flits: (0 flits)
Class 0:
Remaining flits: (0 flits)
Measured flits: (0 flits)
Class 0:
Remaining flits: (0 flits)
Measured flits: (0 flits)
Class 0:
Remaining flits: (0 flits)
Measured flits: (0 flits)
Class 0:
Remaining flits: (0 flits)
Measured flits: (0 flits)
Class 0:
Remaining flits: (0 flits)
Measured flits: (0 flits)
Class 0:
Remaining flits: (0 flits)
Measured flits: (0 flits)
Class 0:
Remaining flits: (0 flits)
Measured flits: (0 flits)
Class 0:
Remaining flits: (0 flits)
Measured flits: (0 flits)
Class 0:
Remaining flits: (0 flits)
Measured flits: (0 flits)
Class 0:
Remaining flits: (0 flits)
Measured flits: (0 flits)
Class 0:
Remaining flits: (0 flits)
Measured flits: (0 flits)
Class 0:
Remaining flits: (0 flits)
Measured flits: (0 flits)
Class 0:
Remaining flits: (0 flits)
Measured flits: (0 flits)
Class 0:
Remaining flits: (0 flits)
Measured flits: (0 flits)
Class 0:
Remaining flits: (0 flits)
Measured flits: (0 flits)
Class 0:
Remaining flits: (0 flits)
Measured flits: (0 flits)
Class 0:
Remaining flits: (0 flits)
Measured flits: (0 flits)
Class 0:
Remaining flits: (0 flits)
Measured flits: (0 flits)
Class 0:
Remaining flits: (0 flits)
Measured flits: (0 flits)
Class 0:
Remaining flits: (0 flits)
Measured flits: (0 flits)
Class 0:
Remaining flits: (0 flits)
Measured flits: (0 flits)
Class 0:
Remaining flits: (0 flits)
Measured flits: (0 flits)
Class 0:
Remaining flits: (0 flits)
Measured flits: (0 flits)
Class 0:
Remaining flits: (0 flits)
Measured flits: (0 flits)
Class 0:
Remaining flits: (0 flits)
Measured flits: (0 flits)
Class 0:
Remaining flits: (0 flits)
Measured flits: (0 flits)
Time taken is 8000 cycles
====== Traffic class 0 ======

Total number of flits generated = 5530, changed lanes = 5240
Overall minimum packet latency = 8 (1 samples)
Overall average packet latency = 41.9898 (1 samples)
Overall maximum packet latency = 146 (1 samples)
Overall minimum network latency = 9 (1 samples)
Overall average network latency = 42.9898 (1 samples)
Overall maximum network latency = 147 (1 samples)
Overall minimum flit latency = 9 (1 samples)
Overall average flit latency = 43.1126 (1 samples)
Overall maximum flit latency = 147 (1 samples)
Overall minimum fragmentation = 0 (1 samples)
Overall average fragmentation = 0 (1 samples)
Overall maximum fragmentation = 0 (1 samples)
Overall minimum injected packet rate = 0.04275 (1 samples)
Overall average injected packet rate = 0.0488906 (1 samples)
Overall maximum injected packet rate = 0.054 (1 samples)
Overall minimum accepted packet rate = 0.039 (1 samples)
Overall average accepted packet rate = 0.0490781 (1 samples)
Overall maximum accepted packet rate = 0.05575 (1 samples)
Overall minimum injected flit rate = 0.04275 (1 samples)
Overall average injected flit rate = 0.0488906 (1 samples)
Overall maximum injected flit rate = 0.054 (1 samples)
Overall minimum accepted flit rate = 0.039 (1 samples)
Overall average accepted flit rate = 0.0490781 (1 samples)
Overall maximum accepted flit rate = 0.05575 (1 samples)
Overall average injected packet size = 1 (1 samples)
Overall average accepted packet size = 1 (1 samples)
Overall average hops = 3.51103 (1 samples)
Overall throughput of the network (flits/cycle) = 1.3825
Overall throughput of the network (packets/cycle) = 1.3825
Total run time 6.78533
