make: Nothing to be done for 'all'.
Master: Running timer....
Master: Running SRC....
BEGIN Configuration File: ./examples/bitrev
// Topology

topology = mesh;
k = 4;
n = 2;

// Routing
routing_function = dor;

// Flow control
num_vcs     = 4;
vc_buf_size = 4;
wait_for_tail_credit = 0;

// Router architecture
vc_allocator = islip;
sw_allocator = islip;
alloc_iters  = 1;

credit_delay   = 1;
routing_delay  = 1;
vc_alloc_delay = 1;
sw_alloc_delay = 1;

input_speedup     = 1;
output_speedup    = 1;
internal_speedup  = 1.0;

vc_busy_when_full = 0;

// Traffic
traffic = uniform;
packet_size = 1;

// Simulation
sim_type = throughput;

injection_rate = 0.31;

END Configuration File: ./examples/bitrev
===== Time: 1000 =====
Class 0:
Minimum packet latency = 10
Average packet latency = 275.47
Maximum packet latency = 575
Minimum network latency = 11
Average network latency = 150.336
Maximum network latency = 437
Slowest packet = 738
Minimum flit latency = 11
Average flit latency = 150.336
Maximum flit latency = 437
Slowest flit = 738
Minimum fragmentation = 0
Average fragmentation = 0
Maximum fragmentation = 0
Minimum injected packet rate = 0.167 (at node 14)
Average injected packet rate = 0.17875
Maximum injected packet rate = 0.183 (at node 2)
Minimum accepted packet rate = 0.136 (at node 14)
Average accepted packet rate = 0.150312
Maximum accepted packet rate = 0.164 (at node 15)
Minimum injected flit rate = 0.167 (at node 14)
Average injected flit rate = 0.17875
Maximum injected flit rate = 0.183 (at node 2)
Minimum accepted flit rate = 0.136 (at node 14)
Average accepted flit rate = 0.150312
Maximum accepted flit rate = 0.164 (at node 15)
Total number of injected packets = 2860
Total number of injected flits = 2860
Average injected packet length = 1
Total number of accepted packets = 2405
Total number of accepted flits = 2405
Average accepted packet length = 1
Total in-flight flits = 468 (0 measured)
===== Time: 2000 =====
Class 0:
Minimum packet latency = 10
Average packet latency = 515.437
Maximum packet latency = 1244
Minimum network latency = 11
Average network latency = 172.378
Maximum network latency = 495
Slowest packet = 738
Minimum flit latency = 11
Average flit latency = 172.378
Maximum flit latency = 495
Slowest flit = 4007
Minimum fragmentation = 0
Average fragmentation = 0
Maximum fragmentation = 0
Minimum injected packet rate = 0.148 (at node 14)
Average injected packet rate = 0.166531
Maximum injected packet rate = 0.1735 (at node 0)
Minimum accepted packet rate = 0.14 (at node 14)
Average accepted packet rate = 0.150844
Maximum accepted packet rate = 0.1625 (at node 15)
Minimum injected flit rate = 0.148 (at node 14)
Average injected flit rate = 0.166531
Maximum injected flit rate = 0.1735 (at node 0)
Minimum accepted flit rate = 0.14 (at node 14)
Average accepted flit rate = 0.150844
Maximum accepted flit rate = 0.1625 (at node 15)
Total number of injected packets = 5329
Total number of injected flits = 5329
Average injected packet length = 1
Total number of accepted packets = 4827
Total number of accepted flits = 4827
Average accepted packet length = 1
Total in-flight flits = 516 (0 measured)
===== Time: 3000 =====
Class 0:
Minimum packet latency = 872
Average packet latency = 1262.96
Maximum packet latency = 1726
Minimum network latency = 92
Average network latency = 200.462
Maximum network latency = 540
Slowest packet = 4827
Minimum flit latency = 92
Average flit latency = 200.462
Maximum flit latency = 540
Slowest flit = 5419
Minimum fragmentation = 0
Average fragmentation = 0
Maximum fragmentation = 0
Minimum injected packet rate = 0.131 (at node 5)
Average injected packet rate = 0.152938
Maximum injected packet rate = 0.167 (at node 8)
Minimum accepted packet rate = 0.136 (at node 4)
Average accepted packet rate = 0.154625
Maximum accepted packet rate = 0.17 (at node 2)
Minimum injected flit rate = 0.131 (at node 5)
Average injected flit rate = 0.152938
Maximum injected flit rate = 0.167 (at node 8)
Minimum accepted flit rate = 0.136 (at node 4)
Average accepted flit rate = 0.154625
Maximum accepted flit rate = 0.17 (at node 2)
Total number of injected packets = 2447
Total number of injected flits = 2447
Average injected packet length = 1
Total number of accepted packets = 2474
Total number of accepted flits = 2474
Average accepted packet length = 1
Total in-flight flits = 487 (0 measured)
===== Time: 4000 =====
Class 0:
Minimum packet latency = 1387
Average packet latency = 1780
Maximum packet latency = 2186
Minimum network latency = 94
Average network latency = 171.111
Maximum network latency = 403
Slowest packet = 7791
Minimum flit latency = 94
Average flit latency = 177.196
Maximum flit latency = 403
Slowest flit = 9053
Minimum fragmentation = 0
Average fragmentation = 0
Maximum fragmentation = 0
Minimum injected packet rate = 0.142 (at node 2)
Average injected packet rate = 0.15975
Maximum injected packet rate = 0.167 (at node 4)
Minimum accepted packet rate = 0.137 (at node 4)
Average accepted packet rate = 0.159562
Maximum accepted packet rate = 0.176 (at node 7)
Minimum injected flit rate = 0.142 (at node 2)
Average injected flit rate = 0.15975
Maximum injected flit rate = 0.167 (at node 4)
Minimum accepted flit rate = 0.137 (at node 4)
Average accepted flit rate = 0.159562
Maximum accepted flit rate = 0.176 (at node 7)
Total number of injected packets = 2556
Total number of injected flits = 2556
Average injected packet length = 1
Total number of accepted packets = 2553
Total number of accepted flits = 2553
Average accepted packet length = 1
Total in-flight flits = 489 (489 measured)
===== Time: 5000 =====
Class 0:
Minimum packet latency = 1387
Average packet latency = 2024.1
Maximum packet latency = 2788
Minimum network latency = 87
Average network latency = 181.139
Maximum network latency = 435
Slowest packet = 7791
Minimum flit latency = 87
Average flit latency = 183.236
Maximum flit latency = 435
Slowest flit = 9808
Minimum fragmentation = 0
Average fragmentation = 0
Maximum fragmentation = 0
Minimum injected packet rate = 0.1375 (at node 5)
Average injected packet rate = 0.158531
Maximum injected packet rate = 0.1665 (at node 3)
Minimum accepted packet rate = 0.14 (at node 4)
Average accepted packet rate = 0.158719
Maximum accepted packet rate = 0.1755 (at node 7)
Minimum injected flit rate = 0.1375 (at node 5)
Average injected flit rate = 0.158531
Maximum injected flit rate = 0.1665 (at node 3)
Minimum accepted flit rate = 0.14 (at node 4)
Average accepted flit rate = 0.158719
Maximum accepted flit rate = 0.1755 (at node 7)
Total number of injected packets = 5073
Total number of injected flits = 5073
Average injected packet length = 1
Total number of accepted packets = 5079
Total number of accepted flits = 5079
Average accepted packet length = 1
Total in-flight flits = 481 (481 measured)
===== Time: 6000 =====
Class 0:
Minimum packet latency = 1387
Average packet latency = 2274
Maximum packet latency = 3353
Minimum network latency = 87
Average network latency = 182.34
Maximum network latency = 435
Slowest packet = 7791
Minimum flit latency = 87
Average flit latency = 183.655
Maximum flit latency = 435
Slowest flit = 9808
Minimum fragmentation = 0
Average fragmentation = 0
Maximum fragmentation = 0
Minimum injected packet rate = 0.141667 (at node 5)
Average injected packet rate = 0.159417
Maximum injected packet rate = 0.166667 (at node 3)
Minimum accepted packet rate = 0.143333 (at node 4)
Average accepted packet rate = 0.159479
Maximum accepted packet rate = 0.172333 (at node 11)
Minimum injected flit rate = 0.141667 (at node 5)
Average injected flit rate = 0.159417
Maximum injected flit rate = 0.166667 (at node 3)
Minimum accepted flit rate = 0.143333 (at node 4)
Average accepted flit rate = 0.159479
Maximum accepted flit rate = 0.172333 (at node 11)
Total number of injected packets = 7652
Total number of injected flits = 7652
Average injected packet length = 1
Total number of accepted packets = 7655
Total number of accepted flits = 7655
Average accepted packet length = 1
Total in-flight flits = 483 (483 measured)
Draining remaining packets ...
Class 0:
Remaining flits: 14444 14571 14626 14631 14655 14706 14707 14732 14769 14801 [...] (462 flits)
Measured flits: 14444 14571 14626 14631 14655 14706 14707 14732 14769 14801 [...] (462 flits)
Class 0:
Remaining flits: 14571 14631 14655 14707 14732 14769 14801 14814 14817 14822 [...] (435 flits)
Measured flits: 14571 14631 14655 14707 14732 14769 14801 14814 14817 14822 [...] (435 flits)
Class 0:
Remaining flits: 14631 14655 14732 14801 14814 14817 14829 14830 14841 14848 [...] (404 flits)
Measured flits: 14631 14655 14732 14801 14814 14817 14829 14830 14841 14848 [...] (404 flits)
Class 0:
Remaining flits: 14655 14732 14801 14814 14829 14830 14848 14859 14860 14874 [...] (383 flits)
Measured flits: 14655 14732 14801 14814 14829 14830 14848 14859 14860 14874 [...] (383 flits)
Class 0:
Remaining flits: 14655 14814 14829 14830 14848 14860 14874 14875 14887 14892 [...] (359 flits)
Measured flits: 14655 14814 14829 14830 14848 14860 14874 14875 14887 14892 [...] (359 flits)
Class 0:
Remaining flits: 14655 14814 14829 14830 14848 14860 14874 14875 14887 14905 [...] (327 flits)
Measured flits: 14655 14814 14829 14830 14848 14860 14874 14875 14887 14905 [...] (327 flits)
Class 0:
Remaining flits: 14814 14829 14830 14848 14860 14874 14875 14887 14905 14906 [...] (299 flits)
Measured flits: 14814 14829 14830 14848 14860 14874 14875 14887 14905 14906 [...] (299 flits)
Class 0:
Remaining flits: 14814 14829 14830 14848 14875 14887 14905 14906 14909 14923 [...] (264 flits)
Measured flits: 14814 14829 14830 14848 14875 14887 14905 14906 14909 14923 [...] (264 flits)
Class 0:
Remaining flits: 14814 14829 14830 14848 14875 14887 14905 14923 14936 14938 [...] (235 flits)
Measured flits: 14814 14829 14830 14848 14875 14887 14905 14923 14936 14938 [...] (235 flits)
Class 0:
Remaining flits: 14814 14829 14848 14875 14887 14905 14938 14955 14967 14980 [...] (206 flits)
Measured flits: 14814 14829 14848 14875 14887 14905 14938 14955 14967 14980 [...] (206 flits)
Class 0:
Remaining flits: 14814 14829 14848 14887 14905 14938 14967 14997 15002 15031 [...] (179 flits)
Measured flits: 14814 14829 14848 14887 14905 14938 14967 14997 15002 15031 [...] (179 flits)
Class 0:
Remaining flits: 14814 14829 14848 14887 14905 14938 15002 15050 15060 15075 [...] (153 flits)
Measured flits: 14814 14829 14848 14887 14905 14938 15002 15050 15060 15075 [...] (153 flits)
Class 0:
Remaining flits: 14829 14848 14887 14905 14938 15002 15050 15060 15075 15080 [...] (135 flits)
Measured flits: 14829 14848 14887 14905 14938 15002 15050 15060 15075 15080 [...] (135 flits)
Class 0:
Remaining flits: 14848 14938 15050 15060 15075 15080 15110 15115 15131 15137 [...] (111 flits)
Measured flits: 14848 14938 15050 15060 15075 15080 15110 15115 15131 15137 [...] (111 flits)
Class 0:
Remaining flits: 14848 14938 15050 15060 15075 15080 15115 15131 15137 15139 [...] (91 flits)
Measured flits: 14848 14938 15050 15060 15075 15080 15115 15131 15137 15139 [...] (91 flits)
Class 0:
Remaining flits: 15060 15075 15080 15115 15131 15137 15139 15154 15169 15193 [...] (74 flits)
Measured flits: 15060 15075 15080 15115 15131 15137 15139 15154 15169 15193 [...] (74 flits)
Class 0:
Remaining flits: 15075 15080 15115 15137 15139 15154 15169 15193 15197 15198 [...] (65 flits)
Measured flits: 15075 15080 15115 15137 15139 15154 15169 15193 15197 15198 [...] (65 flits)
Class 0:
Remaining flits: 15075 15080 15115 15137 15154 15169 15193 15197 15198 15210 [...] (56 flits)
Measured flits: 15075 15080 15115 15137 15154 15169 15193 15197 15198 15210 [...] (56 flits)
Class 0:
Remaining flits: 15075 15080 15115 15137 15154 15169 15193 15197 15210 15213 [...] (46 flits)
Measured flits: 15075 15080 15115 15137 15154 15169 15193 15197 15210 15213 [...] (46 flits)
Class 0:
Remaining flits: 15075 15080 15137 15193 15210 15213 15220 15234 15253 15262 [...] (35 flits)
Measured flits: 15075 15080 15137 15193 15210 15213 15220 15234 15253 15262 [...] (35 flits)
Class 0:
Remaining flits: 15137 15193 15210 15213 15220 15234 15253 15262 15268 15273 [...] (31 flits)
Measured flits: 15137 15193 15210 15213 15220 15234 15253 15262 15268 15273 [...] (31 flits)
Class 0:
Remaining flits: 15137 15193 15213 15220 15234 15262 15268 15313 15321 15334 [...] (25 flits)
Measured flits: 15137 15193 15213 15220 15234 15262 15268 15313 15321 15334 [...] (25 flits)
Class 0:
Remaining flits: 15137 15220 15234 15262 15268 15313 15321 15334 15346 15350 [...] (22 flits)
Measured flits: 15137 15220 15234 15262 15268 15313 15321 15334 15346 15350 [...] (22 flits)
Class 0:
Remaining flits: 15137 15234 15313 15334 15346 15356 15377 15381 15406 15407 [...] (17 flits)
Measured flits: 15137 15234 15313 15334 15346 15356 15377 15381 15406 15407 [...] (17 flits)
Class 0:
Remaining flits: 15137 15234 15313 15334 15356 15377 15381 15406 15407 15412 [...] (15 flits)
Measured flits: 15137 15234 15313 15334 15356 15377 15381 15406 15407 15412 [...] (15 flits)
Class 0:
Remaining flits: 15137 15234 15313 15334 15356 15377 15381 15406 15412 15425 [...] (14 flits)
Measured flits: 15137 15234 15313 15334 15356 15377 15381 15406 15412 15425 [...] (14 flits)
Class 0:
Remaining flits: 15137 15334 15356 15381 15406 15412 15426 15433 15435 15437 (10 flits)
Measured flits: 15137 15334 15356 15381 15406 15412 15426 15433 15435 15437 (10 flits)
Class 0:
Remaining flits: 15137 15334 15356 15381 15406 15412 15426 15433 15435 15437 (10 flits)
Measured flits: 15137 15334 15356 15381 15406 15412 15426 15433 15435 15437 (10 flits)
Class 0:
Remaining flits: 15381 15406 15412 15426 15433 15435 15437 (7 flits)
Measured flits: 15381 15406 15412 15426 15433 15435 15437 (7 flits)
Class 0:
Remaining flits: 15381 15426 15433 15435 15437 (5 flits)
Measured flits: 15381 15426 15433 15435 15437 (5 flits)
Class 0:
Remaining flits: 15426 15433 15435 15437 (4 flits)
Measured flits: 15426 15433 15435 15437 (4 flits)
Class 0:
Remaining flits: 15426 15433 15435 15437 (4 flits)
Measured flits: 15426 15433 15435 15437 (4 flits)
Class 0:
Remaining flits: 15426 15433 15435 15437 (4 flits)
Measured flits: 15426 15433 15435 15437 (4 flits)
Class 0:
Remaining flits: 15426 15433 15435 15437 (4 flits)
Measured flits: 15426 15433 15435 15437 (4 flits)
Class 0:
Remaining flits: 15426 15433 15435 15437 (4 flits)
Measured flits: 15426 15433 15435 15437 (4 flits)
Class 0:
Remaining flits: 15426 15433 15435 15437 (4 flits)
Measured flits: 15426 15433 15435 15437 (4 flits)
Class 0:
Remaining flits: 15426 15433 15435 15437 (4 flits)
Measured flits: 15426 15433 15435 15437 (4 flits)
Class 0:
Remaining flits: 15426 15433 15435 15437 (4 flits)
Measured flits: 15426 15433 15435 15437 (4 flits)
Class 0:
Remaining flits: 15426 15433 15435 15437 (4 flits)
Measured flits: 15426 15433 15435 15437 (4 flits)
Class 0:
Remaining flits: 15426 15433 15435 15437 (4 flits)
Measured flits: 15426 15433 15435 15437 (4 flits)
Class 0:
Remaining flits: 15426 15433 15435 15437 (4 flits)
Measured flits: 15426 15433 15435 15437 (4 flits)
Class 0:
Remaining flits: 15426 15433 15435 15437 (4 flits)
Measured flits: 15426 15433 15435 15437 (4 flits)
Class 0:
Remaining flits: 15426 15433 15435 15437 (4 flits)
Measured flits: 15426 15433 15435 15437 (4 flits)
Class 0:
Remaining flits: 15426 15433 15435 15437 (4 flits)
Measured flits: 15426 15433 15435 15437 (4 flits)
Class 0:
Remaining flits: 15426 15433 15435 15437 (4 flits)
Measured flits: 15426 15433 15435 15437 (4 flits)
Class 0:
Remaining flits: 15426 15433 15435 15437 (4 flits)
Measured flits: 15426 15433 15435 15437 (4 flits)
Class 0:
Remaining flits: 15426 15433 15435 15437 (4 flits)
Measured flits: 15426 15433 15435 15437 (4 flits)
Class 0:
Remaining flits: 15426 15433 15435 15437 (4 flits)
Measured flits: 15426 15433 15435 15437 (4 flits)
Class 0:
Remaining flits: 15426 15433 15435 15437 (4 flits)
Measured flits: 15426 15433 15435 15437 (4 flits)
Class 0:
Remaining flits: 15426 15433 15435 15437 (4 flits)
Measured flits: 15426 15433 15435 15437 (4 flits)
Class 0:
Remaining flits: 15426 15433 15435 15437 (4 flits)
Measured flits: 15426 15433 15435 15437 (4 flits)
Class 0:
Remaining flits: 15426 15433 15435 15437 (4 flits)
Measured flits: 15426 15433 15435 15437 (4 flits)
Class 0:
Remaining flits: 15426 15433 15435 15437 (4 flits)
Measured flits: 15426 15433 15435 15437 (4 flits)
Class 0:
Remaining flits: 15426 15433 15435 15437 (4 flits)
Measured flits: 15426 15433 15435 15437 (4 flits)
Class 0:
Remaining flits: 15426 15433 15435 15437 (4 flits)
Measured flits: 15426 15433 15435 15437 (4 flits)
Class 0:
Remaining flits: 15426 15433 15435 15437 (4 flits)
Measured flits: 15426 15433 15435 15437 (4 flits)
Class 0:
Remaining flits: 15426 15433 15435 15437 (4 flits)
Measured flits: 15426 15433 15435 15437 (4 flits)
Class 0:
Remaining flits: 15426 15433 15435 15437 (4 flits)
Measured flits: 15426 15433 15435 15437 (4 flits)
Class 0:
Remaining flits: 15426 15433 15435 15437 (4 flits)
Measured flits: 15426 15433 15435 15437 (4 flits)
Class 0:
Remaining flits: 15426 15433 15435 15437 (4 flits)
Measured flits: 15426 15433 15435 15437 (4 flits)
Class 0:
Remaining flits: 15426 15433 15435 15437 (4 flits)
Measured flits: 15426 15433 15435 15437 (4 flits)
Class 0:
Remaining flits: 15426 15433 15435 15437 (4 flits)
Measured flits: 15426 15433 15435 15437 (4 flits)
Class 0:
Remaining flits: 15426 15433 15435 15437 (4 flits)
Measured flits: 15426 15433 15435 15437 (4 flits)
Class 0:
Remaining flits: 15426 15433 15435 15437 (4 flits)
Measured flits: 15426 15433 15435 15437 (4 flits)
Class 0:
Remaining flits: 15426 15433 15435 15437 (4 flits)
Measured flits: 15426 15433 15435 15437 (4 flits)
Class 0:
Remaining flits: 15426 15433 15435 15437 (4 flits)
Measured flits: 15426 15433 15435 15437 (4 flits)
Class 0:
Remaining flits: 15426 15433 15435 15437 (4 flits)
Measured flits: 15426 15433 15435 15437 (4 flits)
Class 0:
Remaining flits: 15426 15433 15435 15437 (4 flits)
Measured flits: 15426 15433 15435 15437 (4 flits)
Class 0:
Remaining flits: 15426 15433 15435 15437 (4 flits)
Measured flits: 15426 15433 15435 15437 (4 flits)
Class 0:
Remaining flits: 15426 15433 15435 15437 (4 flits)
Measured flits: 15426 15433 15435 15437 (4 flits)
Class 0:
Remaining flits: 15426 15433 15435 15437 (4 flits)
Measured flits: 15426 15433 15435 15437 (4 flits)
Class 0:
Remaining flits: 15426 15433 15435 15437 (4 flits)
Measured flits: 15426 15433 15435 15437 (4 flits)
Class 0:
Remaining flits: 15426 15433 15435 15437 (4 flits)
Measured flits: 15426 15433 15435 15437 (4 flits)
Class 0:
Remaining flits: 15426 15433 15435 15437 (4 flits)
Measured flits: 15426 15433 15435 15437 (4 flits)
Class 0:
Remaining flits: 15426 15433 15435 15437 (4 flits)
Measured flits: 15426 15433 15435 15437 (4 flits)
Class 0:
Remaining flits: 15426 15433 15435 15437 (4 flits)
Measured flits: 15426 15433 15435 15437 (4 flits)
Class 0:
Remaining flits: 15426 15433 15435 15437 (4 flits)
Measured flits: 15426 15433 15435 15437 (4 flits)
Class 0:
Remaining flits: 15426 15433 15435 15437 (4 flits)
Measured flits: 15426 15433 15435 15437 (4 flits)
Class 0:
Remaining flits: 15426 15433 15435 15437 (4 flits)
Measured flits: 15426 15433 15435 15437 (4 flits)
Class 0:
Remaining flits: 15426 15433 15435 15437 (4 flits)
Measured flits: 15426 15433 15435 15437 (4 flits)
Class 0:
Remaining flits: 15426 15433 15435 15437 (4 flits)
Measured flits: 15426 15433 15435 15437 (4 flits)
Class 0:
Remaining flits: 15426 15433 15435 15437 (4 flits)
Measured flits: 15426 15433 15435 15437 (4 flits)
Class 0:
Remaining flits: 15426 15433 15435 15437 (4 flits)
Measured flits: 15426 15433 15435 15437 (4 flits)
Class 0:
Remaining flits: 15426 15433 15435 15437 (4 flits)
Measured flits: 15426 15433 15435 15437 (4 flits)
Class 0:
Remaining flits: 15426 15433 15435 15437 (4 flits)
Measured flits: 15426 15433 15435 15437 (4 flits)
Class 0:
Remaining flits: 15426 15433 15435 15437 (4 flits)
Measured flits: 15426 15433 15435 15437 (4 flits)
Class 0:
Remaining flits: 15426 15433 15435 15437 (4 flits)
Measured flits: 15426 15433 15435 15437 (4 flits)
Class 0:
Remaining flits: 15426 15433 15435 15437 (4 flits)
Measured flits: 15426 15433 15435 15437 (4 flits)
Class 0:
Remaining flits: 15426 15433 15435 15437 (4 flits)
Measured flits: 15426 15433 15435 15437 (4 flits)
Class 0:
Remaining flits: 15426 15433 15435 15437 (4 flits)
Measured flits: 15426 15433 15435 15437 (4 flits)
Class 0:
Remaining flits: 15426 15433 15435 15437 (4 flits)
Measured flits: 15426 15433 15435 15437 (4 flits)
Class 0:
Remaining flits: 15426 15433 15435 15437 (4 flits)
Measured flits: 15426 15433 15435 15437 (4 flits)
Class 0:
Remaining flits: 15426 15433 15435 15437 (4 flits)
Measured flits: 15426 15433 15435 15437 (4 flits)
Class 0:
Remaining flits: 15426 15433 15435 15437 (4 flits)
Measured flits: 15426 15433 15435 15437 (4 flits)
Class 0:
Remaining flits: 15426 15433 15435 15437 (4 flits)
Measured flits: 15426 15433 15435 15437 (4 flits)
Class 0:
Remaining flits: 15426 15433 15435 15437 (4 flits)
Measured flits: 15426 15433 15435 15437 (4 flits)
Class 0:
Remaining flits: 15426 15433 15435 15437 (4 flits)
Measured flits: 15426 15433 15435 15437 (4 flits)
Class 0:
Remaining flits: 15426 15433 15435 15437 (4 flits)
Measured flits: 15426 15433 15435 15437 (4 flits)
Class 0:
Remaining flits: 15426 15433 15435 15437 (4 flits)
Measured flits: 15426 15433 15435 15437 (4 flits)
Class 0:
Remaining flits: 15426 15433 15435 15437 (4 flits)
Measured flits: 15426 15433 15435 15437 (4 flits)
Class 0:
Remaining flits: 15426 15433 15435 15437 (4 flits)
Measured flits: 15426 15433 15435 15437 (4 flits)
Time taken is 7000 cycles
====== Traffic class 0 ======

Total number of flits generated = 15439, changed lanes = 15308
Overall minimum packet latency = 1387 (1 samples)
Overall average packet latency = 2319.91 (1 samples)
Overall maximum packet latency = 3493 (1 samples)
Overall minimum network latency = 87 (1 samples)
Overall average network latency = 183.064 (1 samples)
Overall maximum network latency = 435 (1 samples)
Overall minimum flit latency = 87 (1 samples)
Overall average flit latency = 184.258 (1 samples)
Overall maximum flit latency = 435 (1 samples)
Overall minimum fragmentation = 0 (1 samples)
Overall average fragmentation = 0 (1 samples)
Overall maximum fragmentation = 0 (1 samples)
Overall minimum injected packet rate = 0.141667 (1 samples)
Overall average injected packet rate = 0.159417 (1 samples)
Overall maximum injected packet rate = 0.166667 (1 samples)
Overall minimum accepted packet rate = 0.143333 (1 samples)
Overall average accepted packet rate = 0.159479 (1 samples)
Overall maximum accepted packet rate = 0.172333 (1 samples)
Overall minimum injected flit rate = 0.141667 (1 samples)
Overall average injected flit rate = 0.159417 (1 samples)
Overall maximum injected flit rate = 0.166667 (1 samples)
Overall minimum accepted flit rate = 0.143333 (1 samples)
Overall average accepted flit rate = 0.159479 (1 samples)
Overall maximum accepted flit rate = 0.172333 (1 samples)
Overall average injected packet size = 1 (1 samples)
Overall average accepted packet size = 1 (1 samples)
Overall average hops = 3.51 (1 samples)
Overall throughput of the network (flits/cycle) = 5.145
Overall throughput of the network (packets/cycle) = 5.145
Total run time 6888.03
