make: Nothing to be done for 'all'.
Master: Running timer....
Master: Running SRC....
BEGIN Configuration File: ./examples/bitrev
// Topology

topology = mesh;
k = 4;
n = 2;

// Routing
routing_function = dor;

// Flow control
num_vcs     = 4;
vc_buf_size = 4;
wait_for_tail_credit = 0;

// Router architecture
vc_allocator = islip;
sw_allocator = islip;
alloc_iters  = 1;

credit_delay   = 1;
routing_delay  = 1;
vc_alloc_delay = 1;
sw_alloc_delay = 1;

input_speedup     = 1;
output_speedup    = 1;
internal_speedup  = 1.0;

vc_busy_when_full = 0;

// Traffic
traffic = uniform;
packet_size = 1;

// Simulation
sim_type = throughput;

injection_rate = 0.47;

END Configuration File: ./examples/bitrev
===== Time: 1000 =====
Class 0:
Minimum packet latency = 8
Average packet latency = 361.005
Maximum packet latency = 735
Minimum network latency = 9
Average network latency = 152.393
Maximum network latency = 345
Slowest packet = 330
Minimum flit latency = 9
Average flit latency = 152.393
Maximum flit latency = 345
Slowest flit = 1591
Minimum fragmentation = 0
Average fragmentation = 0
Maximum fragmentation = 0
Minimum injected packet rate = 0.17 (at node 2)
Average injected packet rate = 0.179063
Maximum injected packet rate = 0.182 (at node 4)
Minimum accepted packet rate = 0.135 (at node 14)
Average accepted packet rate = 0.151188
Maximum accepted packet rate = 0.163 (at node 1)
Minimum injected flit rate = 0.17 (at node 2)
Average injected flit rate = 0.179063
Maximum injected flit rate = 0.182 (at node 4)
Minimum accepted flit rate = 0.135 (at node 14)
Average accepted flit rate = 0.151188
Maximum accepted flit rate = 0.163 (at node 1)
Total number of injected packets = 2865
Total number of injected flits = 2865
Average injected packet length = 1
Total number of accepted packets = 2419
Total number of accepted flits = 2419
Average accepted packet length = 1
Total in-flight flits = 461 (0 measured)
===== Time: 2000 =====
Class 0:
Minimum packet latency = 8
Average packet latency = 690.673
Maximum packet latency = 1417
Minimum network latency = 9
Average network latency = 169.098
Maximum network latency = 522
Slowest packet = 330
Minimum flit latency = 9
Average flit latency = 169.098
Maximum flit latency = 522
Slowest flit = 3120
Minimum fragmentation = 0
Average fragmentation = 0
Maximum fragmentation = 0
Minimum injected packet rate = 0.157 (at node 13)
Average injected packet rate = 0.169594
Maximum injected packet rate = 0.1745 (at node 11)
Minimum accepted packet rate = 0.1425 (at node 14)
Average accepted packet rate = 0.154844
Maximum accepted packet rate = 0.165 (at node 15)
Minimum injected flit rate = 0.157 (at node 13)
Average injected flit rate = 0.169594
Maximum injected flit rate = 0.1745 (at node 11)
Minimum accepted flit rate = 0.1425 (at node 14)
Average accepted flit rate = 0.154844
Maximum accepted flit rate = 0.165 (at node 15)
Total number of injected packets = 5427
Total number of injected flits = 5427
Average injected packet length = 1
Total number of accepted packets = 4955
Total number of accepted flits = 4955
Average accepted packet length = 1
Total in-flight flits = 484 (0 measured)
===== Time: 3000 =====
Class 0:
Minimum packet latency = 1244
Average packet latency = 1664.69
Maximum packet latency = 2165
Minimum network latency = 93
Average network latency = 190.952
Maximum network latency = 530
Slowest packet = 5121
Minimum flit latency = 93
Average flit latency = 190.952
Maximum flit latency = 530
Slowest flit = 6580
Minimum fragmentation = 0
Average fragmentation = 0
Maximum fragmentation = 0
Minimum injected packet rate = 0.129 (at node 13)
Average injected packet rate = 0.156062
Maximum injected packet rate = 0.166 (at node 2)
Minimum accepted packet rate = 0.136 (at node 4)
Average accepted packet rate = 0.154812
Maximum accepted packet rate = 0.172 (at node 7)
Minimum injected flit rate = 0.129 (at node 13)
Average injected flit rate = 0.156062
Maximum injected flit rate = 0.166 (at node 2)
Minimum accepted flit rate = 0.136 (at node 4)
Average accepted flit rate = 0.154812
Maximum accepted flit rate = 0.172 (at node 7)
Total number of injected packets = 2497
Total number of injected flits = 2497
Average injected packet length = 1
Total number of accepted packets = 2477
Total number of accepted flits = 2477
Average accepted packet length = 1
Total in-flight flits = 507 (0 measured)
===== Time: 4000 =====
Class 0:
Minimum packet latency = 2025
Average packet latency = 2400.35
Maximum packet latency = 2786
Minimum network latency = 94
Average network latency = 173.869
Maximum network latency = 506
Slowest packet = 7947
Minimum flit latency = 94
Average flit latency = 184.574
Maximum flit latency = 555
Slowest flit = 6899
Minimum fragmentation = 0
Average fragmentation = 0
Maximum fragmentation = 0
Minimum injected packet rate = 0.04 (at node 12)
Average injected packet rate = 0.15275
Maximum injected packet rate = 0.167 (at node 7)
Minimum accepted packet rate = 0.133 (at node 4)
Average accepted packet rate = 0.15725
Maximum accepted packet rate = 0.182 (at node 7)
Minimum injected flit rate = 0.04 (at node 12)
Average injected flit rate = 0.15275
Maximum injected flit rate = 0.167 (at node 7)
Minimum accepted flit rate = 0.133 (at node 4)
Average accepted flit rate = 0.15725
Maximum accepted flit rate = 0.182 (at node 7)
Total number of injected packets = 2444
Total number of injected flits = 2444
Average injected packet length = 1
Total number of accepted packets = 2516
Total number of accepted flits = 2516
Average accepted packet length = 1
Total in-flight flits = 432 (432 measured)
===== Time: 5000 =====
Class 0:
Minimum packet latency = 2025
Average packet latency = 2718.44
Maximum packet latency = 3478
Minimum network latency = 94
Average network latency = 171.584
Maximum network latency = 518
Slowest packet = 7947
Minimum flit latency = 94
Average flit latency = 177.327
Maximum flit latency = 555
Slowest flit = 6899
Minimum fragmentation = 0
Average fragmentation = 0
Maximum fragmentation = 0
Minimum injected packet rate = 0.02 (at node 12)
Average injected packet rate = 0.151906
Maximum injected packet rate = 0.1665 (at node 14)
Minimum accepted packet rate = 0.1285 (at node 4)
Average accepted packet rate = 0.152875
Maximum accepted packet rate = 0.1725 (at node 7)
Minimum injected flit rate = 0.02 (at node 12)
Average injected flit rate = 0.151906
Maximum injected flit rate = 0.1665 (at node 14)
Minimum accepted flit rate = 0.1285 (at node 4)
Average accepted flit rate = 0.152875
Maximum accepted flit rate = 0.1725 (at node 7)
Total number of injected packets = 4861
Total number of injected flits = 4861
Average injected packet length = 1
Total number of accepted packets = 4892
Total number of accepted flits = 4892
Average accepted packet length = 1
Total in-flight flits = 474 (474 measured)
===== Time: 6000 =====
Class 0:
Minimum packet latency = 2025
Average packet latency = 3041.58
Maximum packet latency = 4104
Minimum network latency = 93
Average network latency = 176.258
Maximum network latency = 662
Slowest packet = 7947
Minimum flit latency = 93
Average flit latency = 179.824
Maximum flit latency = 662
Slowest flit = 12830
Minimum fragmentation = 0
Average fragmentation = 0
Maximum fragmentation = 0
Minimum injected packet rate = 0.0133333 (at node 12)
Average injected packet rate = 0.149271
Maximum injected packet rate = 0.166667 (at node 15)
Minimum accepted packet rate = 0.134 (at node 4)
Average accepted packet rate = 0.150292
Maximum accepted packet rate = 0.164 (at node 11)
Minimum injected flit rate = 0.0133333 (at node 12)
Average injected flit rate = 0.149271
Maximum injected flit rate = 0.166667 (at node 15)
Minimum accepted flit rate = 0.134 (at node 4)
Average accepted flit rate = 0.150292
Maximum accepted flit rate = 0.164 (at node 11)
Total number of injected packets = 7165
Total number of injected flits = 7165
Average injected packet length = 1
Total number of accepted packets = 7214
Total number of accepted flits = 7214
Average accepted packet length = 1
Total in-flight flits = 455 (455 measured)
Draining remaining packets ...
Class 0:
Remaining flits: 8163 8273 8300 8329 8352 8385 8402 8414 8430 8446 [...] (437 flits)
Measured flits: 8163 8273 8300 8329 8352 8385 8402 8414 8430 8446 [...] (437 flits)
Class 0:
Remaining flits: 8163 8273 8300 8329 8352 8385 8402 8414 8430 8446 [...] (413 flits)
Measured flits: 8163 8273 8300 8329 8352 8385 8402 8414 8430 8446 [...] (413 flits)
Class 0:
Remaining flits: 8163 8273 8300 8329 8352 8385 8402 8414 8430 8446 [...] (393 flits)
Measured flits: 8163 8273 8300 8329 8352 8385 8402 8414 8430 8446 [...] (393 flits)
Class 0:
Remaining flits: 8163 8273 8300 8329 8352 8385 8402 8414 8430 8446 [...] (375 flits)
Measured flits: 8163 8273 8300 8329 8352 8385 8402 8414 8430 8446 [...] (375 flits)
Class 0:
Remaining flits: 8163 8273 8300 8329 8352 8385 8402 8414 8430 8446 [...] (353 flits)
Measured flits: 8163 8273 8300 8329 8352 8385 8402 8414 8430 8446 [...] (353 flits)
Class 0:
Remaining flits: 8163 8273 8300 8329 8352 8385 8402 8414 8430 8446 [...] (335 flits)
Measured flits: 8163 8273 8300 8329 8352 8385 8402 8414 8430 8446 [...] (335 flits)
Class 0:
Remaining flits: 8163 8273 8300 8329 8352 8385 8402 8414 8430 8446 [...] (313 flits)
Measured flits: 8163 8273 8300 8329 8352 8385 8402 8414 8430 8446 [...] (313 flits)
Class 0:
Remaining flits: 8163 8273 8300 8329 8352 8385 8402 8414 8430 8446 [...] (293 flits)
Measured flits: 8163 8273 8300 8329 8352 8385 8402 8414 8430 8446 [...] (293 flits)
Class 0:
Remaining flits: 8163 8273 8300 8329 8352 8385 8402 8414 8430 8446 [...] (277 flits)
Measured flits: 8163 8273 8300 8329 8352 8385 8402 8414 8430 8446 [...] (277 flits)
Class 0:
Remaining flits: 8163 8273 8300 8329 8352 8385 8402 8414 8430 8446 [...] (255 flits)
Measured flits: 8163 8273 8300 8329 8352 8385 8402 8414 8430 8446 [...] (255 flits)
Class 0:
Remaining flits: 8163 8273 8300 8329 8352 8385 8402 8414 8430 8446 [...] (230 flits)
Measured flits: 8163 8273 8300 8329 8352 8385 8402 8414 8430 8446 [...] (230 flits)
Class 0:
Remaining flits: 8163 8273 8300 8329 8352 8385 8402 8414 8430 8446 [...] (212 flits)
Measured flits: 8163 8273 8300 8329 8352 8385 8402 8414 8430 8446 [...] (212 flits)
Class 0:
Remaining flits: 8163 8273 8300 8329 8352 8385 8402 8414 8430 8446 [...] (193 flits)
Measured flits: 8163 8273 8300 8329 8352 8385 8402 8414 8430 8446 [...] (193 flits)
Class 0:
Remaining flits: 8163 8273 8300 8329 8352 8385 8402 8414 8430 8446 [...] (174 flits)
Measured flits: 8163 8273 8300 8329 8352 8385 8402 8414 8430 8446 [...] (174 flits)
Class 0:
Remaining flits: 8163 8273 8300 8329 8352 8385 8402 8414 8430 8446 [...] (164 flits)
Measured flits: 8163 8273 8300 8329 8352 8385 8402 8414 8430 8446 [...] (164 flits)
Class 0:
Remaining flits: 8163 8273 8300 8329 8352 8385 8402 8414 8430 8446 [...] (148 flits)
Measured flits: 8163 8273 8300 8329 8352 8385 8402 8414 8430 8446 [...] (148 flits)
Class 0:
Remaining flits: 8163 8273 8300 8329 8352 8385 8402 8414 8430 8446 [...] (134 flits)
Measured flits: 8163 8273 8300 8329 8352 8385 8402 8414 8430 8446 [...] (134 flits)
Class 0:
Remaining flits: 8163 8273 8300 8329 8352 8385 8402 8414 8430 8446 [...] (120 flits)
Measured flits: 8163 8273 8300 8329 8352 8385 8402 8414 8430 8446 [...] (120 flits)
Class 0:
Remaining flits: 8163 8273 8300 8329 8352 8385 8402 8414 8430 8446 [...] (109 flits)
Measured flits: 8163 8273 8300 8329 8352 8385 8402 8414 8430 8446 [...] (109 flits)
Class 0:
Remaining flits: 8163 8273 8300 8329 8352 8385 8402 8414 8430 8446 [...] (105 flits)
Measured flits: 8163 8273 8300 8329 8352 8385 8402 8414 8430 8446 [...] (105 flits)
Class 0:
Remaining flits: 8163 8273 8300 8329 8352 8385 8402 8414 8430 8446 [...] (100 flits)
Measured flits: 8163 8273 8300 8329 8352 8385 8402 8414 8430 8446 [...] (100 flits)
Class 0:
Remaining flits: 8163 8273 8300 8329 8352 8385 8402 8414 8430 8446 [...] (93 flits)
Measured flits: 8163 8273 8300 8329 8352 8385 8402 8414 8430 8446 [...] (93 flits)
Class 0:
Remaining flits: 8163 8273 8300 8329 8352 8385 8402 8414 8430 8446 [...] (87 flits)
Measured flits: 8163 8273 8300 8329 8352 8385 8402 8414 8430 8446 [...] (87 flits)
Class 0:
Remaining flits: 8163 8273 8300 8329 8352 8385 8402 8414 8430 8446 [...] (81 flits)
Measured flits: 8163 8273 8300 8329 8352 8385 8402 8414 8430 8446 [...] (81 flits)
Class 0:
Remaining flits: 8163 8273 8300 8329 8352 8385 8402 8414 8430 8446 [...] (79 flits)
Measured flits: 8163 8273 8300 8329 8352 8385 8402 8414 8430 8446 [...] (79 flits)
Class 0:
Remaining flits: 8163 8273 8300 8329 8352 8385 8402 8414 8430 8446 [...] (73 flits)
Measured flits: 8163 8273 8300 8329 8352 8385 8402 8414 8430 8446 [...] (73 flits)
Class 0:
Remaining flits: 8163 8273 8300 8329 8352 8385 8402 8414 8430 8446 [...] (69 flits)
Measured flits: 8163 8273 8300 8329 8352 8385 8402 8414 8430 8446 [...] (69 flits)
Class 0:
Remaining flits: 8163 8273 8300 8329 8352 8385 8402 8414 8430 8446 [...] (67 flits)
Measured flits: 8163 8273 8300 8329 8352 8385 8402 8414 8430 8446 [...] (67 flits)
Class 0:
Remaining flits: 8163 8273 8300 8329 8352 8385 8402 8414 8430 8446 [...] (64 flits)
Measured flits: 8163 8273 8300 8329 8352 8385 8402 8414 8430 8446 [...] (64 flits)
Class 0:
Remaining flits: 8163 8273 8300 8329 8352 8385 8402 8414 8430 8446 [...] (59 flits)
Measured flits: 8163 8273 8300 8329 8352 8385 8402 8414 8430 8446 [...] (59 flits)
Class 0:
Remaining flits: 8163 8273 8300 8329 8352 8385 8402 8414 8430 8446 [...] (59 flits)
Measured flits: 8163 8273 8300 8329 8352 8385 8402 8414 8430 8446 [...] (59 flits)
Class 0:
Remaining flits: 8163 8273 8300 8329 8352 8385 8402 8414 8430 8446 [...] (53 flits)
Measured flits: 8163 8273 8300 8329 8352 8385 8402 8414 8430 8446 [...] (53 flits)
Class 0:
Remaining flits: 8163 8273 8300 8329 8352 8385 8402 8414 8430 8446 [...] (50 flits)
Measured flits: 8163 8273 8300 8329 8352 8385 8402 8414 8430 8446 [...] (50 flits)
Class 0:
Remaining flits: 8163 8273 8300 8329 8352 8385 8402 8414 8430 8446 [...] (45 flits)
Measured flits: 8163 8273 8300 8329 8352 8385 8402 8414 8430 8446 [...] (45 flits)
Class 0:
Remaining flits: 8163 8273 8300 8329 8352 8385 8402 8414 8430 8446 [...] (43 flits)
Measured flits: 8163 8273 8300 8329 8352 8385 8402 8414 8430 8446 [...] (43 flits)
Class 0:
Remaining flits: 8163 8273 8300 8329 8352 8385 8402 8414 8430 8446 [...] (41 flits)
Measured flits: 8163 8273 8300 8329 8352 8385 8402 8414 8430 8446 [...] (41 flits)
Class 0:
Remaining flits: 8163 8273 8300 8329 8352 8385 8402 8414 8430 8446 [...] (39 flits)
Measured flits: 8163 8273 8300 8329 8352 8385 8402 8414 8430 8446 [...] (39 flits)
Class 0:
Remaining flits: 8163 8273 8300 8329 8352 8385 8402 8414 8430 8446 [...] (37 flits)
Measured flits: 8163 8273 8300 8329 8352 8385 8402 8414 8430 8446 [...] (37 flits)
Class 0:
Remaining flits: 8163 8273 8300 8329 8352 8385 8402 8414 8430 8446 [...] (36 flits)
Measured flits: 8163 8273 8300 8329 8352 8385 8402 8414 8430 8446 [...] (36 flits)
Class 0:
Remaining flits: 8163 8273 8300 8329 8352 8385 8402 8414 8430 8446 [...] (32 flits)
Measured flits: 8163 8273 8300 8329 8352 8385 8402 8414 8430 8446 [...] (32 flits)
Class 0:
Remaining flits: 8163 8273 8300 8329 8352 8385 8402 8414 8430 8446 [...] (31 flits)
Measured flits: 8163 8273 8300 8329 8352 8385 8402 8414 8430 8446 [...] (31 flits)
Class 0:
Remaining flits: 8163 8273 8300 8329 8352 8385 8402 8414 8430 8446 [...] (30 flits)
Measured flits: 8163 8273 8300 8329 8352 8385 8402 8414 8430 8446 [...] (30 flits)
Class 0:
Remaining flits: 8163 8273 8300 8329 8352 8385 8402 8414 8430 8446 [...] (29 flits)
Measured flits: 8163 8273 8300 8329 8352 8385 8402 8414 8430 8446 [...] (29 flits)
Class 0:
Remaining flits: 8163 8273 8300 8329 8352 8385 8402 8414 8430 8446 [...] (29 flits)
Measured flits: 8163 8273 8300 8329 8352 8385 8402 8414 8430 8446 [...] (29 flits)
Class 0:
Remaining flits: 8163 8273 8300 8329 8352 8385 8402 8414 8430 8446 [...] (29 flits)
Measured flits: 8163 8273 8300 8329 8352 8385 8402 8414 8430 8446 [...] (29 flits)
Class 0:
Remaining flits: 8163 8273 8300 8329 8352 8385 8402 8414 8430 8446 [...] (29 flits)
Measured flits: 8163 8273 8300 8329 8352 8385 8402 8414 8430 8446 [...] (29 flits)
Class 0:
Remaining flits: 8163 8273 8300 8329 8352 8385 8402 8414 8430 8446 [...] (29 flits)
Measured flits: 8163 8273 8300 8329 8352 8385 8402 8414 8430 8446 [...] (29 flits)
Class 0:
Remaining flits: 8163 8273 8300 8329 8352 8385 8402 8414 8430 8446 [...] (29 flits)
Measured flits: 8163 8273 8300 8329 8352 8385 8402 8414 8430 8446 [...] (29 flits)
Class 0:
Remaining flits: 8163 8273 8300 8329 8352 8385 8402 8414 8430 8446 [...] (29 flits)
Measured flits: 8163 8273 8300 8329 8352 8385 8402 8414 8430 8446 [...] (29 flits)
Class 0:
Remaining flits: 8163 8273 8300 8329 8352 8385 8402 8414 8430 8446 [...] (29 flits)
Measured flits: 8163 8273 8300 8329 8352 8385 8402 8414 8430 8446 [...] (29 flits)
Class 0:
Remaining flits: 8163 8273 8300 8329 8352 8385 8402 8414 8430 8446 [...] (29 flits)
Measured flits: 8163 8273 8300 8329 8352 8385 8402 8414 8430 8446 [...] (29 flits)
Class 0:
Remaining flits: 8163 8273 8300 8329 8352 8385 8402 8414 8430 8446 [...] (29 flits)
Measured flits: 8163 8273 8300 8329 8352 8385 8402 8414 8430 8446 [...] (29 flits)
Class 0:
Remaining flits: 8163 8273 8300 8329 8352 8385 8402 8414 8430 8446 [...] (29 flits)
Measured flits: 8163 8273 8300 8329 8352 8385 8402 8414 8430 8446 [...] (29 flits)
Class 0:
Remaining flits: 8163 8273 8300 8329 8352 8385 8402 8414 8430 8446 [...] (29 flits)
Measured flits: 8163 8273 8300 8329 8352 8385 8402 8414 8430 8446 [...] (29 flits)
Class 0:
Remaining flits: 8163 8273 8300 8329 8352 8385 8402 8414 8430 8446 [...] (29 flits)
Measured flits: 8163 8273 8300 8329 8352 8385 8402 8414 8430 8446 [...] (29 flits)
Class 0:
Remaining flits: 8163 8273 8300 8329 8352 8385 8402 8414 8430 8446 [...] (29 flits)
Measured flits: 8163 8273 8300 8329 8352 8385 8402 8414 8430 8446 [...] (29 flits)
Class 0:
Remaining flits: 8163 8273 8300 8329 8352 8385 8402 8414 8430 8446 [...] (29 flits)
Measured flits: 8163 8273 8300 8329 8352 8385 8402 8414 8430 8446 [...] (29 flits)
Class 0:
Remaining flits: 8163 8273 8300 8329 8352 8385 8402 8414 8430 8446 [...] (29 flits)
Measured flits: 8163 8273 8300 8329 8352 8385 8402 8414 8430 8446 [...] (29 flits)
Class 0:
Remaining flits: 8163 8273 8300 8329 8352 8385 8402 8414 8430 8446 [...] (29 flits)
Measured flits: 8163 8273 8300 8329 8352 8385 8402 8414 8430 8446 [...] (29 flits)
Class 0:
Remaining flits: 8163 8273 8300 8329 8352 8385 8402 8414 8430 8446 [...] (29 flits)
Measured flits: 8163 8273 8300 8329 8352 8385 8402 8414 8430 8446 [...] (29 flits)
Class 0:
Remaining flits: 8163 8273 8300 8329 8352 8385 8402 8414 8430 8446 [...] (29 flits)
Measured flits: 8163 8273 8300 8329 8352 8385 8402 8414 8430 8446 [...] (29 flits)
Class 0:
Remaining flits: 8163 8273 8300 8329 8352 8385 8402 8414 8430 8446 [...] (29 flits)
Measured flits: 8163 8273 8300 8329 8352 8385 8402 8414 8430 8446 [...] (29 flits)
Class 0:
Remaining flits: 8163 8273 8300 8329 8352 8385 8402 8414 8430 8446 [...] (29 flits)
Measured flits: 8163 8273 8300 8329 8352 8385 8402 8414 8430 8446 [...] (29 flits)
Class 0:
Remaining flits: 8163 8273 8300 8329 8352 8385 8402 8414 8430 8446 [...] (29 flits)
Measured flits: 8163 8273 8300 8329 8352 8385 8402 8414 8430 8446 [...] (29 flits)
Class 0:
Remaining flits: 8163 8273 8300 8329 8352 8385 8402 8414 8430 8446 [...] (29 flits)
Measured flits: 8163 8273 8300 8329 8352 8385 8402 8414 8430 8446 [...] (29 flits)
Class 0:
Remaining flits: 8163 8273 8300 8329 8352 8385 8402 8414 8430 8446 [...] (29 flits)
Measured flits: 8163 8273 8300 8329 8352 8385 8402 8414 8430 8446 [...] (29 flits)
Class 0:
Remaining flits: 8163 8273 8300 8329 8352 8385 8402 8414 8430 8446 [...] (29 flits)
Measured flits: 8163 8273 8300 8329 8352 8385 8402 8414 8430 8446 [...] (29 flits)
Class 0:
Remaining flits: 8163 8273 8300 8329 8352 8385 8402 8414 8430 8446 [...] (29 flits)
Measured flits: 8163 8273 8300 8329 8352 8385 8402 8414 8430 8446 [...] (29 flits)
Class 0:
Remaining flits: 8163 8273 8300 8329 8352 8385 8402 8414 8430 8446 [...] (29 flits)
Measured flits: 8163 8273 8300 8329 8352 8385 8402 8414 8430 8446 [...] (29 flits)
Class 0:
Remaining flits: 8163 8273 8300 8329 8352 8385 8402 8414 8430 8446 [...] (29 flits)
Measured flits: 8163 8273 8300 8329 8352 8385 8402 8414 8430 8446 [...] (29 flits)
Class 0:
Remaining flits: 8163 8273 8300 8329 8352 8385 8402 8414 8430 8446 [...] (29 flits)
Measured flits: 8163 8273 8300 8329 8352 8385 8402 8414 8430 8446 [...] (29 flits)
Class 0:
Remaining flits: 8163 8273 8300 8329 8352 8385 8402 8414 8430 8446 [...] (29 flits)
Measured flits: 8163 8273 8300 8329 8352 8385 8402 8414 8430 8446 [...] (29 flits)
Class 0:
Remaining flits: 8163 8273 8300 8329 8352 8385 8402 8414 8430 8446 [...] (29 flits)
Measured flits: 8163 8273 8300 8329 8352 8385 8402 8414 8430 8446 [...] (29 flits)
Class 0:
Remaining flits: 8163 8273 8300 8329 8352 8385 8402 8414 8430 8446 [...] (29 flits)
Measured flits: 8163 8273 8300 8329 8352 8385 8402 8414 8430 8446 [...] (29 flits)
Class 0:
Remaining flits: 8163 8273 8300 8329 8352 8385 8402 8414 8430 8446 [...] (29 flits)
Measured flits: 8163 8273 8300 8329 8352 8385 8402 8414 8430 8446 [...] (29 flits)
Class 0:
Remaining flits: 8163 8273 8300 8329 8352 8385 8402 8414 8430 8446 [...] (29 flits)
Measured flits: 8163 8273 8300 8329 8352 8385 8402 8414 8430 8446 [...] (29 flits)
Class 0:
Remaining flits: 8163 8273 8300 8329 8352 8385 8402 8414 8430 8446 [...] (29 flits)
Measured flits: 8163 8273 8300 8329 8352 8385 8402 8414 8430 8446 [...] (29 flits)
Class 0:
Remaining flits: 8163 8273 8300 8329 8352 8385 8402 8414 8430 8446 [...] (29 flits)
Measured flits: 8163 8273 8300 8329 8352 8385 8402 8414 8430 8446 [...] (29 flits)
Class 0:
Remaining flits: 8163 8273 8300 8329 8352 8385 8402 8414 8430 8446 [...] (29 flits)
Measured flits: 8163 8273 8300 8329 8352 8385 8402 8414 8430 8446 [...] (29 flits)
Class 0:
Remaining flits: 8163 8273 8300 8329 8352 8385 8402 8414 8430 8446 [...] (29 flits)
Measured flits: 8163 8273 8300 8329 8352 8385 8402 8414 8430 8446 [...] (29 flits)
Class 0:
Remaining flits: 8163 8273 8300 8329 8352 8385 8402 8414 8430 8446 [...] (29 flits)
Measured flits: 8163 8273 8300 8329 8352 8385 8402 8414 8430 8446 [...] (29 flits)
Class 0:
Remaining flits: 8163 8273 8300 8329 8352 8385 8402 8414 8430 8446 [...] (29 flits)
Measured flits: 8163 8273 8300 8329 8352 8385 8402 8414 8430 8446 [...] (29 flits)
Class 0:
Remaining flits: 8163 8273 8300 8329 8352 8385 8402 8414 8430 8446 [...] (29 flits)
Measured flits: 8163 8273 8300 8329 8352 8385 8402 8414 8430 8446 [...] (29 flits)
Class 0:
Remaining flits: 8163 8273 8300 8329 8352 8385 8402 8414 8430 8446 [...] (29 flits)
Measured flits: 8163 8273 8300 8329 8352 8385 8402 8414 8430 8446 [...] (29 flits)
Class 0:
Remaining flits: 8163 8273 8300 8329 8352 8385 8402 8414 8430 8446 [...] (29 flits)
Measured flits: 8163 8273 8300 8329 8352 8385 8402 8414 8430 8446 [...] (29 flits)
Class 0:
Remaining flits: 8163 8273 8300 8329 8352 8385 8402 8414 8430 8446 [...] (29 flits)
Measured flits: 8163 8273 8300 8329 8352 8385 8402 8414 8430 8446 [...] (29 flits)
Class 0:
Remaining flits: 8163 8273 8300 8329 8352 8385 8402 8414 8430 8446 [...] (29 flits)
Measured flits: 8163 8273 8300 8329 8352 8385 8402 8414 8430 8446 [...] (29 flits)
Class 0:
Remaining flits: 8163 8273 8300 8329 8352 8385 8402 8414 8430 8446 [...] (29 flits)
Measured flits: 8163 8273 8300 8329 8352 8385 8402 8414 8430 8446 [...] (29 flits)
Class 0:
Remaining flits: 8163 8273 8300 8329 8352 8385 8402 8414 8430 8446 [...] (29 flits)
Measured flits: 8163 8273 8300 8329 8352 8385 8402 8414 8430 8446 [...] (29 flits)
Class 0:
Remaining flits: 8163 8273 8300 8329 8352 8385 8402 8414 8430 8446 [...] (29 flits)
Measured flits: 8163 8273 8300 8329 8352 8385 8402 8414 8430 8446 [...] (29 flits)
Class 0:
Remaining flits: 8163 8273 8300 8329 8352 8385 8402 8414 8430 8446 [...] (29 flits)
Measured flits: 8163 8273 8300 8329 8352 8385 8402 8414 8430 8446 [...] (29 flits)
Class 0:
Remaining flits: 8163 8273 8300 8329 8352 8385 8402 8414 8430 8446 [...] (29 flits)
Measured flits: 8163 8273 8300 8329 8352 8385 8402 8414 8430 8446 [...] (29 flits)
Class 0:
Remaining flits: 8163 8273 8300 8329 8352 8385 8402 8414 8430 8446 [...] (29 flits)
Measured flits: 8163 8273 8300 8329 8352 8385 8402 8414 8430 8446 [...] (29 flits)
Class 0:
Remaining flits: 8163 8273 8300 8329 8352 8385 8402 8414 8430 8446 [...] (29 flits)
Measured flits: 8163 8273 8300 8329 8352 8385 8402 8414 8430 8446 [...] (29 flits)
Class 0:
Remaining flits: 8163 8273 8300 8329 8352 8385 8402 8414 8430 8446 [...] (29 flits)
Measured flits: 8163 8273 8300 8329 8352 8385 8402 8414 8430 8446 [...] (29 flits)
Class 0:
Remaining flits: 8163 8273 8300 8329 8352 8385 8402 8414 8430 8446 [...] (29 flits)
Measured flits: 8163 8273 8300 8329 8352 8385 8402 8414 8430 8446 [...] (29 flits)
Class 0:
Remaining flits: 8163 8273 8300 8329 8352 8385 8402 8414 8430 8446 [...] (29 flits)
Measured flits: 8163 8273 8300 8329 8352 8385 8402 8414 8430 8446 [...] (29 flits)
Class 0:
Remaining flits: 8163 8273 8300 8329 8352 8385 8402 8414 8430 8446 [...] (29 flits)
Measured flits: 8163 8273 8300 8329 8352 8385 8402 8414 8430 8446 [...] (29 flits)
Class 0:
Remaining flits: 8163 8273 8300 8329 8352 8385 8402 8414 8430 8446 [...] (29 flits)
Measured flits: 8163 8273 8300 8329 8352 8385 8402 8414 8430 8446 [...] (29 flits)
Class 0:
Remaining flits: 8163 8273 8300 8329 8352 8385 8402 8414 8430 8446 [...] (29 flits)
Measured flits: 8163 8273 8300 8329 8352 8385 8402 8414 8430 8446 [...] (29 flits)
Class 0:
Remaining flits: 8163 8273 8300 8329 8352 8385 8402 8414 8430 8446 [...] (29 flits)
Measured flits: 8163 8273 8300 8329 8352 8385 8402 8414 8430 8446 [...] (29 flits)
Time taken is 7000 cycles
====== Traffic class 0 ======

Total number of flits generated = 15101, changed lanes = 14933
Overall minimum packet latency = 2025 (1 samples)
Overall average packet latency = 3103.71 (1 samples)
Overall maximum packet latency = 4416 (1 samples)
Overall minimum network latency = 93 (1 samples)
Overall average network latency = 179.64 (1 samples)
Overall maximum network latency = 707 (1 samples)
Overall minimum flit latency = 93 (1 samples)
Overall average flit latency = 182.782 (1 samples)
Overall maximum flit latency = 707 (1 samples)
Overall minimum fragmentation = 0 (1 samples)
Overall average fragmentation = 0 (1 samples)
Overall maximum fragmentation = 0 (1 samples)
Overall minimum injected packet rate = 0.0133333 (1 samples)
Overall average injected packet rate = 0.149271 (1 samples)
Overall maximum injected packet rate = 0.166667 (1 samples)
Overall minimum accepted packet rate = 0.134 (1 samples)
Overall average accepted packet rate = 0.150292 (1 samples)
Overall maximum accepted packet rate = 0.164 (1 samples)
Overall minimum injected flit rate = 0.0133333 (1 samples)
Overall average injected flit rate = 0.149271 (1 samples)
Overall maximum injected flit rate = 0.166667 (1 samples)
Overall minimum accepted flit rate = 0.134 (1 samples)
Overall average accepted flit rate = 0.150292 (1 samples)
Overall maximum accepted flit rate = 0.164 (1 samples)
Overall average injected packet size = 1 (1 samples)
Overall average accepted packet size = 1 (1 samples)
Overall average hops = 3.45997 (1 samples)
Overall throughput of the network (flits/cycle) = 5.024
Overall throughput of the network (packets/cycle) = 5.024
Total run time 7111.08
