make: Nothing to be done for 'all'.
Master: Running timer....
Master: Running SRC....
BEGIN Configuration File: ./examples/bitrev
// Topology

topology = mesh;
k = 4;
n = 2;

// Routing
routing_function = dor;

// Flow control
num_vcs     = 4;
vc_buf_size = 4;
wait_for_tail_credit = 0;

// Router architecture
vc_allocator = islip;
sw_allocator = islip;
alloc_iters  = 1;

credit_delay   = 1;
routing_delay  = 1;
vc_alloc_delay = 1;
sw_alloc_delay = 1;

input_speedup     = 1;
output_speedup    = 1;
internal_speedup  = 1.0;

vc_busy_when_full = 0;

// Traffic
traffic = uniform;
packet_size = 1;

// Simulation
sim_type = throughput;

injection_rate = 0.29;

END Configuration File: ./examples/bitrev
===== Time: 1000 =====
Class 0:
Minimum packet latency = 9
Average packet latency = 253.5
Maximum packet latency = 572
Minimum network latency = 10
Average network latency = 147.349
Maximum network latency = 339
Slowest packet = 501
Minimum flit latency = 10
Average flit latency = 147.349
Maximum flit latency = 339
Slowest flit = 1759
Minimum fragmentation = 0
Average fragmentation = 0
Maximum fragmentation = 0
Minimum injected packet rate = 0.174 (at node 10)
Average injected packet rate = 0.180062
Maximum injected packet rate = 0.183 (at node 4)
Minimum accepted packet rate = 0.133 (at node 14)
Average accepted packet rate = 0.151625
Maximum accepted packet rate = 0.163 (at node 1)
Minimum injected flit rate = 0.174 (at node 10)
Average injected flit rate = 0.180062
Maximum injected flit rate = 0.183 (at node 4)
Minimum accepted flit rate = 0.133 (at node 14)
Average accepted flit rate = 0.151625
Maximum accepted flit rate = 0.163 (at node 1)
Total number of injected packets = 2881
Total number of injected flits = 2881
Average injected packet length = 1
Total number of accepted packets = 2426
Total number of accepted flits = 2426
Average accepted packet length = 1
Total in-flight flits = 469 (0 measured)
===== Time: 2000 =====
Class 0:
Minimum packet latency = 9
Average packet latency = 472.942
Maximum packet latency = 1090
Minimum network latency = 10
Average network latency = 163.864
Maximum network latency = 384
Slowest packet = 501
Minimum flit latency = 10
Average flit latency = 163.864
Maximum flit latency = 384
Slowest flit = 2808
Minimum fragmentation = 0
Average fragmentation = 0
Maximum fragmentation = 0
Minimum injected packet rate = 0.1645 (at node 10)
Average injected packet rate = 0.170844
Maximum injected packet rate = 0.174 (at node 8)
Minimum accepted packet rate = 0.1425 (at node 14)
Average accepted packet rate = 0.155688
Maximum accepted packet rate = 0.168 (at node 8)
Minimum injected flit rate = 0.1645 (at node 10)
Average injected flit rate = 0.170844
Maximum injected flit rate = 0.174 (at node 8)
Minimum accepted flit rate = 0.1425 (at node 14)
Average accepted flit rate = 0.155688
Maximum accepted flit rate = 0.168 (at node 8)
Total number of injected packets = 5467
Total number of injected flits = 5467
Average injected packet length = 1
Total number of accepted packets = 4982
Total number of accepted flits = 4982
Average accepted packet length = 1
Total in-flight flits = 496 (0 measured)
===== Time: 3000 =====
Class 0:
Minimum packet latency = 768
Average packet latency = 1120.14
Maximum packet latency = 1543
Minimum network latency = 92
Average network latency = 182.506
Maximum network latency = 434
Slowest packet = 4967
Minimum flit latency = 92
Average flit latency = 182.506
Maximum flit latency = 434
Slowest flit = 5574
Minimum fragmentation = 0
Average fragmentation = 0
Maximum fragmentation = 0
Minimum injected packet rate = 0.14 (at node 13)
Average injected packet rate = 0.159688
Maximum injected packet rate = 0.167 (at node 15)
Minimum accepted packet rate = 0.143 (at node 4)
Average accepted packet rate = 0.161812
Maximum accepted packet rate = 0.177 (at node 6)
Minimum injected flit rate = 0.14 (at node 13)
Average injected flit rate = 0.159688
Maximum injected flit rate = 0.167 (at node 15)
Minimum accepted flit rate = 0.143 (at node 4)
Average accepted flit rate = 0.161812
Maximum accepted flit rate = 0.177 (at node 6)
Total number of injected packets = 2555
Total number of injected flits = 2555
Average injected packet length = 1
Total number of accepted packets = 2589
Total number of accepted flits = 2589
Average accepted packet length = 1
Total in-flight flits = 463 (0 measured)
===== Time: 4000 =====
Class 0:
Minimum packet latency = 1194
Average packet latency = 1594.5
Maximum packet latency = 1971
Minimum network latency = 93
Average network latency = 179.451
Maximum network latency = 371
Slowest packet = 8036
Minimum flit latency = 93
Average flit latency = 181.847
Maximum flit latency = 391
Slowest flit = 7253
Minimum fragmentation = 0
Average fragmentation = 0
Maximum fragmentation = 0
Minimum injected packet rate = 0.145 (at node 10)
Average injected packet rate = 0.160875
Maximum injected packet rate = 0.167 (at node 0)
Minimum accepted packet rate = 0.134 (at node 4)
Average accepted packet rate = 0.158688
Maximum accepted packet rate = 0.181 (at node 7)
Minimum injected flit rate = 0.145 (at node 10)
Average injected flit rate = 0.160875
Maximum injected flit rate = 0.167 (at node 0)
Minimum accepted flit rate = 0.134 (at node 4)
Average accepted flit rate = 0.158688
Maximum accepted flit rate = 0.181 (at node 7)
Total number of injected packets = 2574
Total number of injected flits = 2574
Average injected packet length = 1
Total number of accepted packets = 2539
Total number of accepted flits = 2539
Average accepted packet length = 1
Total in-flight flits = 502 (502 measured)
===== Time: 5000 =====
Class 0:
Minimum packet latency = 1194
Average packet latency = 1823.38
Maximum packet latency = 2464
Minimum network latency = 92
Average network latency = 180.807
Maximum network latency = 377
Slowest packet = 8036
Minimum flit latency = 92
Average flit latency = 181.866
Maximum flit latency = 391
Slowest flit = 7253
Minimum fragmentation = 0
Average fragmentation = 0
Maximum fragmentation = 0
Minimum injected packet rate = 0.1475 (at node 10)
Average injected packet rate = 0.161375
Maximum injected packet rate = 0.1665 (at node 0)
Minimum accepted packet rate = 0.1405 (at node 4)
Average accepted packet rate = 0.160938
Maximum accepted packet rate = 0.183 (at node 7)
Minimum injected flit rate = 0.1475 (at node 10)
Average injected flit rate = 0.161375
Maximum injected flit rate = 0.1665 (at node 0)
Minimum accepted flit rate = 0.1405 (at node 4)
Average accepted flit rate = 0.160938
Maximum accepted flit rate = 0.183 (at node 7)
Total number of injected packets = 5164
Total number of injected flits = 5164
Average injected packet length = 1
Total number of accepted packets = 5150
Total number of accepted flits = 5150
Average accepted packet length = 1
Total in-flight flits = 479 (479 measured)
===== Time: 6000 =====
Class 0:
Minimum packet latency = 1194
Average packet latency = 2045.86
Maximum packet latency = 2973
Minimum network latency = 92
Average network latency = 181.003
Maximum network latency = 426
Slowest packet = 8036
Minimum flit latency = 92
Average flit latency = 181.7
Maximum flit latency = 426
Slowest flit = 13510
Minimum fragmentation = 0
Average fragmentation = 0
Maximum fragmentation = 0
Minimum injected packet rate = 0.147333 (at node 10)
Average injected packet rate = 0.160438
Maximum injected packet rate = 0.166333 (at node 0)
Minimum accepted packet rate = 0.144667 (at node 4)
Average accepted packet rate = 0.160333
Maximum accepted packet rate = 0.176667 (at node 7)
Minimum injected flit rate = 0.147333 (at node 10)
Average injected flit rate = 0.160438
Maximum injected flit rate = 0.166333 (at node 0)
Minimum accepted flit rate = 0.144667 (at node 4)
Average accepted flit rate = 0.160333
Maximum accepted flit rate = 0.176667 (at node 7)
Total number of injected packets = 7701
Total number of injected flits = 7701
Average injected packet length = 1
Total number of accepted packets = 7696
Total number of accepted flits = 7696
Average accepted packet length = 1
Total in-flight flits = 470 (470 measured)
Draining remaining packets ...
Class 0:
Remaining flits: 14758 15010 15036 15046 15065 15067 15073 15114 15126 15134 [...] (445 flits)
Measured flits: 14758 15010 15036 15046 15065 15067 15073 15114 15126 15134 [...] (445 flits)
Class 0:
Remaining flits: 14758 15010 15036 15046 15065 15067 15114 15126 15134 15136 [...] (417 flits)
Measured flits: 14758 15010 15036 15046 15065 15067 15114 15126 15134 15136 [...] (417 flits)
Class 0:
Remaining flits: 15010 15046 15065 15067 15114 15126 15134 15136 15144 15150 [...] (390 flits)
Measured flits: 15010 15046 15065 15067 15114 15126 15134 15136 15144 15150 [...] (390 flits)
Class 0:
Remaining flits: 15010 15067 15134 15136 15144 15150 15177 15185 15186 15219 [...] (366 flits)
Measured flits: 15010 15067 15134 15136 15144 15150 15177 15185 15186 15219 [...] (366 flits)
Class 0:
Remaining flits: 15010 15067 15134 15136 15144 15150 15177 15185 15186 15220 [...] (348 flits)
Measured flits: 15010 15067 15134 15136 15144 15150 15177 15185 15186 15220 [...] (348 flits)
Class 0:
Remaining flits: 15010 15134 15136 15150 15185 15186 15220 15224 15229 15232 [...] (326 flits)
Measured flits: 15010 15134 15136 15150 15185 15186 15220 15224 15229 15232 [...] (326 flits)
Class 0:
Remaining flits: 15150 15185 15186 15220 15224 15229 15232 15234 15238 15248 [...] (297 flits)
Measured flits: 15150 15185 15186 15220 15224 15229 15232 15234 15238 15248 [...] (297 flits)
Class 0:
Remaining flits: 15220 15224 15229 15232 15234 15248 15249 15255 15264 15265 [...] (275 flits)
Measured flits: 15220 15224 15229 15232 15234 15248 15249 15255 15264 15265 [...] (275 flits)
Class 0:
Remaining flits: 15220 15224 15229 15232 15234 15248 15249 15255 15264 15265 [...] (254 flits)
Measured flits: 15220 15224 15229 15232 15234 15248 15249 15255 15264 15265 [...] (254 flits)
Class 0:
Remaining flits: 15220 15224 15234 15248 15249 15255 15264 15265 15266 15283 [...] (231 flits)
Measured flits: 15220 15224 15234 15248 15249 15255 15264 15265 15266 15283 [...] (231 flits)
Class 0:
Remaining flits: 15220 15224 15234 15249 15255 15265 15266 15283 15304 15313 [...] (211 flits)
Measured flits: 15220 15224 15234 15249 15255 15265 15266 15283 15304 15313 [...] (211 flits)
Class 0:
Remaining flits: 15220 15224 15249 15255 15265 15266 15283 15304 15313 15324 [...] (181 flits)
Measured flits: 15220 15224 15249 15255 15265 15266 15283 15304 15313 15324 [...] (181 flits)
Class 0:
Remaining flits: 15220 15249 15255 15265 15266 15283 15304 15313 15324 15364 [...] (155 flits)
Measured flits: 15220 15249 15255 15265 15266 15283 15304 15313 15324 15364 [...] (155 flits)
Class 0:
Remaining flits: 15220 15249 15255 15266 15283 15313 15324 15364 15371 15387 [...] (134 flits)
Measured flits: 15220 15249 15255 15266 15283 15313 15324 15364 15371 15387 [...] (134 flits)
Class 0:
Remaining flits: 15249 15255 15283 15313 15324 15364 15387 15392 15405 15414 [...] (117 flits)
Measured flits: 15249 15255 15283 15313 15324 15364 15387 15392 15405 15414 [...] (117 flits)
Class 0:
Remaining flits: 15249 15255 15313 15364 15387 15392 15405 15414 15426 15427 [...] (99 flits)
Measured flits: 15249 15255 15313 15364 15387 15392 15405 15414 15426 15427 [...] (99 flits)
Class 0:
Remaining flits: 15392 15405 15414 15426 15427 15446 15464 15488 15531 15542 [...] (75 flits)
Measured flits: 15392 15405 15414 15426 15427 15446 15464 15488 15531 15542 [...] (75 flits)
Class 0:
Remaining flits: 15392 15405 15414 15446 15464 15531 15542 15546 15554 15564 [...] (61 flits)
Measured flits: 15392 15405 15414 15446 15464 15531 15542 15546 15554 15564 [...] (61 flits)
Class 0:
Remaining flits: 15392 15405 15414 15446 15464 15531 15542 15546 15554 15564 [...] (47 flits)
Measured flits: 15392 15405 15414 15446 15464 15531 15542 15546 15554 15564 [...] (47 flits)
Class 0:
Remaining flits: 15392 15405 15446 15464 15546 15554 15564 15574 15596 15598 [...] (42 flits)
Measured flits: 15392 15405 15446 15464 15546 15554 15564 15574 15596 15598 [...] (42 flits)
Class 0:
Remaining flits: 15392 15464 15554 15564 15574 15596 15598 15628 15635 15639 [...] (32 flits)
Measured flits: 15392 15464 15554 15564 15574 15596 15598 15628 15635 15639 [...] (32 flits)
Class 0:
Remaining flits: 15392 15554 15564 15598 15652 15654 15664 15670 15702 15704 [...] (23 flits)
Measured flits: 15392 15554 15564 15598 15652 15654 15664 15670 15702 15704 [...] (23 flits)
Class 0:
Remaining flits: 15654 15664 15670 15702 15704 15709 15717 15723 15724 15726 [...] (17 flits)
Measured flits: 15654 15664 15670 15702 15704 15709 15717 15723 15724 15726 [...] (17 flits)
Class 0:
Remaining flits: 15654 15664 15702 15704 15709 15717 15724 15726 15728 15729 [...] (14 flits)
Measured flits: 15654 15664 15702 15704 15709 15717 15724 15726 15728 15729 [...] (14 flits)
Class 0:
Remaining flits: 15702 15704 15709 15717 15724 15726 15728 15729 15730 15731 [...] (12 flits)
Measured flits: 15702 15704 15709 15717 15724 15726 15728 15729 15730 15731 [...] (12 flits)
Class 0:
Remaining flits: 15702 15704 15709 15717 15724 15726 15728 15729 15730 15731 [...] (12 flits)
Measured flits: 15702 15704 15709 15717 15724 15726 15728 15729 15730 15731 [...] (12 flits)
Class 0:
Remaining flits: 15702 15704 15709 15717 15724 15726 15728 15729 15730 15731 [...] (12 flits)
Measured flits: 15702 15704 15709 15717 15724 15726 15728 15729 15730 15731 [...] (12 flits)
Class 0:
Remaining flits: 15702 15704 15709 15717 15724 15726 15728 15729 15730 15731 [...] (12 flits)
Measured flits: 15702 15704 15709 15717 15724 15726 15728 15729 15730 15731 [...] (12 flits)
Class 0:
Remaining flits: 15702 15704 15709 15717 15724 15726 15728 15729 15730 15731 [...] (12 flits)
Measured flits: 15702 15704 15709 15717 15724 15726 15728 15729 15730 15731 [...] (12 flits)
Class 0:
Remaining flits: 15702 15704 15709 15717 15724 15726 15728 15729 15730 15731 [...] (12 flits)
Measured flits: 15702 15704 15709 15717 15724 15726 15728 15729 15730 15731 [...] (12 flits)
Class 0:
Remaining flits: 15702 15704 15709 15717 15724 15726 15728 15729 15730 15731 [...] (12 flits)
Measured flits: 15702 15704 15709 15717 15724 15726 15728 15729 15730 15731 [...] (12 flits)
Class 0:
Remaining flits: 15702 15704 15709 15717 15724 15726 15728 15729 15730 15731 [...] (12 flits)
Measured flits: 15702 15704 15709 15717 15724 15726 15728 15729 15730 15731 [...] (12 flits)
Class 0:
Remaining flits: 15702 15704 15709 15717 15724 15726 15728 15729 15730 15731 [...] (12 flits)
Measured flits: 15702 15704 15709 15717 15724 15726 15728 15729 15730 15731 [...] (12 flits)
Class 0:
Remaining flits: 15702 15704 15709 15717 15724 15726 15728 15729 15730 15731 [...] (12 flits)
Measured flits: 15702 15704 15709 15717 15724 15726 15728 15729 15730 15731 [...] (12 flits)
Class 0:
Remaining flits: 15702 15704 15709 15717 15724 15726 15728 15729 15730 15731 [...] (12 flits)
Measured flits: 15702 15704 15709 15717 15724 15726 15728 15729 15730 15731 [...] (12 flits)
Class 0:
Remaining flits: 15702 15704 15709 15717 15724 15726 15728 15729 15730 15731 [...] (12 flits)
Measured flits: 15702 15704 15709 15717 15724 15726 15728 15729 15730 15731 [...] (12 flits)
Class 0:
Remaining flits: 15702 15704 15709 15717 15724 15726 15728 15729 15730 15731 [...] (12 flits)
Measured flits: 15702 15704 15709 15717 15724 15726 15728 15729 15730 15731 [...] (12 flits)
Class 0:
Remaining flits: 15702 15704 15709 15717 15724 15726 15728 15729 15730 15731 [...] (12 flits)
Measured flits: 15702 15704 15709 15717 15724 15726 15728 15729 15730 15731 [...] (12 flits)
Class 0:
Remaining flits: 15702 15704 15709 15717 15724 15726 15728 15729 15730 15731 [...] (12 flits)
Measured flits: 15702 15704 15709 15717 15724 15726 15728 15729 15730 15731 [...] (12 flits)
Class 0:
Remaining flits: 15702 15704 15709 15717 15724 15726 15728 15729 15730 15731 [...] (12 flits)
Measured flits: 15702 15704 15709 15717 15724 15726 15728 15729 15730 15731 [...] (12 flits)
Class 0:
Remaining flits: 15702 15704 15709 15717 15724 15726 15728 15729 15730 15731 [...] (12 flits)
Measured flits: 15702 15704 15709 15717 15724 15726 15728 15729 15730 15731 [...] (12 flits)
Class 0:
Remaining flits: 15702 15704 15709 15717 15724 15726 15728 15729 15730 15731 [...] (12 flits)
Measured flits: 15702 15704 15709 15717 15724 15726 15728 15729 15730 15731 [...] (12 flits)
Class 0:
Remaining flits: 15702 15704 15709 15717 15724 15726 15728 15729 15730 15731 [...] (12 flits)
Measured flits: 15702 15704 15709 15717 15724 15726 15728 15729 15730 15731 [...] (12 flits)
Class 0:
Remaining flits: 15702 15704 15709 15717 15724 15726 15728 15729 15730 15731 [...] (12 flits)
Measured flits: 15702 15704 15709 15717 15724 15726 15728 15729 15730 15731 [...] (12 flits)
Class 0:
Remaining flits: 15702 15704 15709 15717 15724 15726 15728 15729 15730 15731 [...] (12 flits)
Measured flits: 15702 15704 15709 15717 15724 15726 15728 15729 15730 15731 [...] (12 flits)
Class 0:
Remaining flits: 15702 15704 15709 15717 15724 15726 15728 15729 15730 15731 [...] (12 flits)
Measured flits: 15702 15704 15709 15717 15724 15726 15728 15729 15730 15731 [...] (12 flits)
Class 0:
Remaining flits: 15702 15704 15709 15717 15724 15726 15728 15729 15730 15731 [...] (12 flits)
Measured flits: 15702 15704 15709 15717 15724 15726 15728 15729 15730 15731 [...] (12 flits)
Class 0:
Remaining flits: 15702 15704 15709 15717 15724 15726 15728 15729 15730 15731 [...] (12 flits)
Measured flits: 15702 15704 15709 15717 15724 15726 15728 15729 15730 15731 [...] (12 flits)
Class 0:
Remaining flits: 15702 15704 15709 15717 15724 15726 15728 15729 15730 15731 [...] (12 flits)
Measured flits: 15702 15704 15709 15717 15724 15726 15728 15729 15730 15731 [...] (12 flits)
Class 0:
Remaining flits: 15702 15704 15709 15717 15724 15726 15728 15729 15730 15731 [...] (12 flits)
Measured flits: 15702 15704 15709 15717 15724 15726 15728 15729 15730 15731 [...] (12 flits)
Class 0:
Remaining flits: 15702 15704 15709 15717 15724 15726 15728 15729 15730 15731 [...] (12 flits)
Measured flits: 15702 15704 15709 15717 15724 15726 15728 15729 15730 15731 [...] (12 flits)
Class 0:
Remaining flits: 15702 15704 15709 15717 15724 15726 15728 15729 15730 15731 [...] (12 flits)
Measured flits: 15702 15704 15709 15717 15724 15726 15728 15729 15730 15731 [...] (12 flits)
Class 0:
Remaining flits: 15702 15704 15709 15717 15724 15726 15728 15729 15730 15731 [...] (12 flits)
Measured flits: 15702 15704 15709 15717 15724 15726 15728 15729 15730 15731 [...] (12 flits)
Class 0:
Remaining flits: 15702 15704 15709 15717 15724 15726 15728 15729 15730 15731 [...] (12 flits)
Measured flits: 15702 15704 15709 15717 15724 15726 15728 15729 15730 15731 [...] (12 flits)
Class 0:
Remaining flits: 15702 15704 15709 15717 15724 15726 15728 15729 15730 15731 [...] (12 flits)
Measured flits: 15702 15704 15709 15717 15724 15726 15728 15729 15730 15731 [...] (12 flits)
Class 0:
Remaining flits: 15702 15704 15709 15717 15724 15726 15728 15729 15730 15731 [...] (12 flits)
Measured flits: 15702 15704 15709 15717 15724 15726 15728 15729 15730 15731 [...] (12 flits)
Class 0:
Remaining flits: 15702 15704 15709 15717 15724 15726 15728 15729 15730 15731 [...] (12 flits)
Measured flits: 15702 15704 15709 15717 15724 15726 15728 15729 15730 15731 [...] (12 flits)
Class 0:
Remaining flits: 15702 15704 15709 15717 15724 15726 15728 15729 15730 15731 [...] (12 flits)
Measured flits: 15702 15704 15709 15717 15724 15726 15728 15729 15730 15731 [...] (12 flits)
Class 0:
Remaining flits: 15702 15704 15709 15717 15724 15726 15728 15729 15730 15731 [...] (12 flits)
Measured flits: 15702 15704 15709 15717 15724 15726 15728 15729 15730 15731 [...] (12 flits)
Class 0:
Remaining flits: 15702 15704 15709 15717 15724 15726 15728 15729 15730 15731 [...] (12 flits)
Measured flits: 15702 15704 15709 15717 15724 15726 15728 15729 15730 15731 [...] (12 flits)
Class 0:
Remaining flits: 15702 15704 15709 15717 15724 15726 15728 15729 15730 15731 [...] (12 flits)
Measured flits: 15702 15704 15709 15717 15724 15726 15728 15729 15730 15731 [...] (12 flits)
Class 0:
Remaining flits: 15702 15704 15709 15717 15724 15726 15728 15729 15730 15731 [...] (12 flits)
Measured flits: 15702 15704 15709 15717 15724 15726 15728 15729 15730 15731 [...] (12 flits)
Class 0:
Remaining flits: 15702 15704 15709 15717 15724 15726 15728 15729 15730 15731 [...] (12 flits)
Measured flits: 15702 15704 15709 15717 15724 15726 15728 15729 15730 15731 [...] (12 flits)
Class 0:
Remaining flits: 15702 15704 15709 15717 15724 15726 15728 15729 15730 15731 [...] (12 flits)
Measured flits: 15702 15704 15709 15717 15724 15726 15728 15729 15730 15731 [...] (12 flits)
Class 0:
Remaining flits: 15702 15704 15709 15717 15724 15726 15728 15729 15730 15731 [...] (12 flits)
Measured flits: 15702 15704 15709 15717 15724 15726 15728 15729 15730 15731 [...] (12 flits)
Class 0:
Remaining flits: 15702 15704 15709 15717 15724 15726 15728 15729 15730 15731 [...] (12 flits)
Measured flits: 15702 15704 15709 15717 15724 15726 15728 15729 15730 15731 [...] (12 flits)
Class 0:
Remaining flits: 15702 15704 15709 15717 15724 15726 15728 15729 15730 15731 [...] (12 flits)
Measured flits: 15702 15704 15709 15717 15724 15726 15728 15729 15730 15731 [...] (12 flits)
Class 0:
Remaining flits: 15702 15704 15709 15717 15724 15726 15728 15729 15730 15731 [...] (12 flits)
Measured flits: 15702 15704 15709 15717 15724 15726 15728 15729 15730 15731 [...] (12 flits)
Class 0:
Remaining flits: 15702 15704 15709 15717 15724 15726 15728 15729 15730 15731 [...] (12 flits)
Measured flits: 15702 15704 15709 15717 15724 15726 15728 15729 15730 15731 [...] (12 flits)
Class 0:
Remaining flits: 15702 15704 15709 15717 15724 15726 15728 15729 15730 15731 [...] (12 flits)
Measured flits: 15702 15704 15709 15717 15724 15726 15728 15729 15730 15731 [...] (12 flits)
Class 0:
Remaining flits: 15702 15704 15709 15717 15724 15726 15728 15729 15730 15731 [...] (12 flits)
Measured flits: 15702 15704 15709 15717 15724 15726 15728 15729 15730 15731 [...] (12 flits)
Class 0:
Remaining flits: 15702 15704 15709 15717 15724 15726 15728 15729 15730 15731 [...] (12 flits)
Measured flits: 15702 15704 15709 15717 15724 15726 15728 15729 15730 15731 [...] (12 flits)
Class 0:
Remaining flits: 15702 15704 15709 15717 15724 15726 15728 15729 15730 15731 [...] (12 flits)
Measured flits: 15702 15704 15709 15717 15724 15726 15728 15729 15730 15731 [...] (12 flits)
Class 0:
Remaining flits: 15702 15704 15709 15717 15724 15726 15728 15729 15730 15731 [...] (12 flits)
Measured flits: 15702 15704 15709 15717 15724 15726 15728 15729 15730 15731 [...] (12 flits)
Class 0:
Remaining flits: 15702 15704 15709 15717 15724 15726 15728 15729 15730 15731 [...] (12 flits)
Measured flits: 15702 15704 15709 15717 15724 15726 15728 15729 15730 15731 [...] (12 flits)
Class 0:
Remaining flits: 15702 15704 15709 15717 15724 15726 15728 15729 15730 15731 [...] (12 flits)
Measured flits: 15702 15704 15709 15717 15724 15726 15728 15729 15730 15731 [...] (12 flits)
Class 0:
Remaining flits: 15702 15704 15709 15717 15724 15726 15728 15729 15730 15731 [...] (12 flits)
Measured flits: 15702 15704 15709 15717 15724 15726 15728 15729 15730 15731 [...] (12 flits)
Class 0:
Remaining flits: 15702 15704 15709 15717 15724 15726 15728 15729 15730 15731 [...] (12 flits)
Measured flits: 15702 15704 15709 15717 15724 15726 15728 15729 15730 15731 [...] (12 flits)
Class 0:
Remaining flits: 15702 15704 15709 15717 15724 15726 15728 15729 15730 15731 [...] (12 flits)
Measured flits: 15702 15704 15709 15717 15724 15726 15728 15729 15730 15731 [...] (12 flits)
Class 0:
Remaining flits: 15702 15704 15709 15717 15724 15726 15728 15729 15730 15731 [...] (12 flits)
Measured flits: 15702 15704 15709 15717 15724 15726 15728 15729 15730 15731 [...] (12 flits)
Class 0:
Remaining flits: 15702 15704 15709 15717 15724 15726 15728 15729 15730 15731 [...] (12 flits)
Measured flits: 15702 15704 15709 15717 15724 15726 15728 15729 15730 15731 [...] (12 flits)
Class 0:
Remaining flits: 15702 15704 15709 15717 15724 15726 15728 15729 15730 15731 [...] (12 flits)
Measured flits: 15702 15704 15709 15717 15724 15726 15728 15729 15730 15731 [...] (12 flits)
Class 0:
Remaining flits: 15702 15704 15709 15717 15724 15726 15728 15729 15730 15731 [...] (12 flits)
Measured flits: 15702 15704 15709 15717 15724 15726 15728 15729 15730 15731 [...] (12 flits)
Class 0:
Remaining flits: 15702 15704 15709 15717 15724 15726 15728 15729 15730 15731 [...] (12 flits)
Measured flits: 15702 15704 15709 15717 15724 15726 15728 15729 15730 15731 [...] (12 flits)
Class 0:
Remaining flits: 15702 15704 15709 15717 15724 15726 15728 15729 15730 15731 [...] (12 flits)
Measured flits: 15702 15704 15709 15717 15724 15726 15728 15729 15730 15731 [...] (12 flits)
Class 0:
Remaining flits: 15702 15704 15709 15717 15724 15726 15728 15729 15730 15731 [...] (12 flits)
Measured flits: 15702 15704 15709 15717 15724 15726 15728 15729 15730 15731 [...] (12 flits)
Class 0:
Remaining flits: 15702 15704 15709 15717 15724 15726 15728 15729 15730 15731 [...] (12 flits)
Measured flits: 15702 15704 15709 15717 15724 15726 15728 15729 15730 15731 [...] (12 flits)
Class 0:
Remaining flits: 15702 15704 15709 15717 15724 15726 15728 15729 15730 15731 [...] (12 flits)
Measured flits: 15702 15704 15709 15717 15724 15726 15728 15729 15730 15731 [...] (12 flits)
Class 0:
Remaining flits: 15702 15704 15709 15717 15724 15726 15728 15729 15730 15731 [...] (12 flits)
Measured flits: 15702 15704 15709 15717 15724 15726 15728 15729 15730 15731 [...] (12 flits)
Class 0:
Remaining flits: 15702 15704 15709 15717 15724 15726 15728 15729 15730 15731 [...] (12 flits)
Measured flits: 15702 15704 15709 15717 15724 15726 15728 15729 15730 15731 [...] (12 flits)
Class 0:
Remaining flits: 15702 15704 15709 15717 15724 15726 15728 15729 15730 15731 [...] (12 flits)
Measured flits: 15702 15704 15709 15717 15724 15726 15728 15729 15730 15731 [...] (12 flits)
Class 0:
Remaining flits: 15702 15704 15709 15717 15724 15726 15728 15729 15730 15731 [...] (12 flits)
Measured flits: 15702 15704 15709 15717 15724 15726 15728 15729 15730 15731 [...] (12 flits)
Class 0:
Remaining flits: 15702 15704 15709 15717 15724 15726 15728 15729 15730 15731 [...] (12 flits)
Measured flits: 15702 15704 15709 15717 15724 15726 15728 15729 15730 15731 [...] (12 flits)
Class 0:
Remaining flits: 15702 15704 15709 15717 15724 15726 15728 15729 15730 15731 [...] (12 flits)
Measured flits: 15702 15704 15709 15717 15724 15726 15728 15729 15730 15731 [...] (12 flits)
Class 0:
Remaining flits: 15702 15704 15709 15717 15724 15726 15728 15729 15730 15731 [...] (12 flits)
Measured flits: 15702 15704 15709 15717 15724 15726 15728 15729 15730 15731 [...] (12 flits)
Class 0:
Remaining flits: 15702 15704 15709 15717 15724 15726 15728 15729 15730 15731 [...] (12 flits)
Measured flits: 15702 15704 15709 15717 15724 15726 15728 15729 15730 15731 [...] (12 flits)
Class 0:
Remaining flits: 15702 15704 15709 15717 15724 15726 15728 15729 15730 15731 [...] (12 flits)
Measured flits: 15702 15704 15709 15717 15724 15726 15728 15729 15730 15731 [...] (12 flits)
Class 0:
Remaining flits: 15702 15704 15709 15717 15724 15726 15728 15729 15730 15731 [...] (12 flits)
Measured flits: 15702 15704 15709 15717 15724 15726 15728 15729 15730 15731 [...] (12 flits)
Class 0:
Remaining flits: 15702 15704 15709 15717 15724 15726 15728 15729 15730 15731 [...] (12 flits)
Measured flits: 15702 15704 15709 15717 15724 15726 15728 15729 15730 15731 [...] (12 flits)
Class 0:
Remaining flits: 15702 15704 15709 15717 15724 15726 15728 15729 15730 15731 [...] (12 flits)
Measured flits: 15702 15704 15709 15717 15724 15726 15728 15729 15730 15731 [...] (12 flits)
Class 0:
Remaining flits: 15702 15704 15709 15717 15724 15726 15728 15729 15730 15731 [...] (12 flits)
Measured flits: 15702 15704 15709 15717 15724 15726 15728 15729 15730 15731 [...] (12 flits)
Time taken is 7000 cycles
====== Traffic class 0 ======

Total number of flits generated = 15737, changed lanes = 15590
Overall minimum packet latency = 1194 (1 samples)
Overall average packet latency = 2086.23 (1 samples)
Overall maximum packet latency = 3100 (1 samples)
Overall minimum network latency = 92 (1 samples)
Overall average network latency = 181.947 (1 samples)
Overall maximum network latency = 426 (1 samples)
Overall minimum flit latency = 92 (1 samples)
Overall average flit latency = 182.551 (1 samples)
Overall maximum flit latency = 426 (1 samples)
Overall minimum fragmentation = 0 (1 samples)
Overall average fragmentation = 0 (1 samples)
Overall maximum fragmentation = 0 (1 samples)
Overall minimum injected packet rate = 0.147333 (1 samples)
Overall average injected packet rate = 0.160438 (1 samples)
Overall maximum injected packet rate = 0.166333 (1 samples)
Overall minimum accepted packet rate = 0.144667 (1 samples)
Overall average accepted packet rate = 0.160333 (1 samples)
Overall maximum accepted packet rate = 0.176667 (1 samples)
Overall minimum injected flit rate = 0.147333 (1 samples)
Overall average injected flit rate = 0.160438 (1 samples)
Overall maximum injected flit rate = 0.166333 (1 samples)
Overall minimum accepted flit rate = 0.144667 (1 samples)
Overall average accepted flit rate = 0.160333 (1 samples)
Overall maximum accepted flit rate = 0.176667 (1 samples)
Overall average injected packet size = 1 (1 samples)
Overall average accepted packet size = 1 (1 samples)
Overall average hops = 3.50514 (1 samples)
Overall throughput of the network (flits/cycle) = 5.24167
Overall throughput of the network (packets/cycle) = 5.24167
Total run time 7772.97
