make: Nothing to be done for 'all'.
Master: Running timer....
Master: Running SRC....
BEGIN Configuration File: ./examples/bitrev
// Topology

topology = mesh;
k = 4;
n = 2;

// Routing
routing_function = dor;

// Flow control
num_vcs     = 4;
vc_buf_size = 4;
wait_for_tail_credit = 0;

// Router architecture
vc_allocator = islip;
sw_allocator = islip;
alloc_iters  = 1;

credit_delay   = 1;
routing_delay  = 1;
vc_alloc_delay = 1;
sw_alloc_delay = 1;

input_speedup     = 1;
output_speedup    = 1;
internal_speedup  = 1.0;

vc_busy_when_full = 0;

// Traffic
traffic = uniform;
packet_size = 1;

// Simulation
sim_type = throughput;

injection_rate = 0.07;

END Configuration File: ./examples/bitrev
===== Time: 1000 =====
Class 0:
Minimum packet latency = 9
Average packet latency = 42.3289
Maximum packet latency = 108
Minimum network latency = 10
Average network latency = 43.3289
Maximum network latency = 109
Slowest packet = 35
Minimum flit latency = 10
Average flit latency = 43.3289
Maximum flit latency = 109
Slowest flit = 35
Minimum fragmentation = 0
Average fragmentation = 0
Maximum fragmentation = 0
Minimum injected packet rate = 0.058 (at node 8)
Average injected packet rate = 0.068125
Maximum injected packet rate = 0.077 (at node 1)
Minimum accepted packet rate = 0.052 (at node 6)
Average accepted packet rate = 0.0655625
Maximum accepted packet rate = 0.076 (at node 15)
Minimum injected flit rate = 0.058 (at node 8)
Average injected flit rate = 0.068125
Maximum injected flit rate = 0.077 (at node 1)
Minimum accepted flit rate = 0.052 (at node 6)
Average accepted flit rate = 0.0655625
Maximum accepted flit rate = 0.076 (at node 15)
Total number of injected packets = 1090
Total number of injected flits = 1090
Average injected packet length = 1
Total number of accepted packets = 1049
Total number of accepted flits = 1049
Average accepted packet length = 1
Total in-flight flits = 41 (0 measured)
===== Time: 2000 =====
Class 0:
Minimum packet latency = 8
Average packet latency = 42.9392
Maximum packet latency = 117
Minimum network latency = 9
Average network latency = 43.9392
Maximum network latency = 118
Slowest packet = 1711
Minimum flit latency = 9
Average flit latency = 43.9392
Maximum flit latency = 118
Slowest flit = 1711
Minimum fragmentation = 0
Average fragmentation = 0
Maximum fragmentation = 0
Minimum injected packet rate = 0.0565 (at node 8)
Average injected packet rate = 0.0672187
Maximum injected packet rate = 0.075 (at node 4)
Minimum accepted packet rate = 0.0565 (at node 14)
Average accepted packet rate = 0.0657812
Maximum accepted packet rate = 0.072 (at node 15)
Minimum injected flit rate = 0.0565 (at node 8)
Average injected flit rate = 0.0672187
Maximum injected flit rate = 0.075 (at node 4)
Minimum accepted flit rate = 0.0565 (at node 14)
Average accepted flit rate = 0.0657812
Maximum accepted flit rate = 0.072 (at node 15)
Total number of injected packets = 2151
Total number of injected flits = 2151
Average injected packet length = 1
Total number of accepted packets = 2105
Total number of accepted flits = 2105
Average accepted packet length = 1
Total in-flight flits = 46 (0 measured)
===== Time: 3000 =====
Class 0:
Minimum packet latency = 8
Average packet latency = 43.8148
Maximum packet latency = 196
Minimum network latency = 9
Average network latency = 44.8148
Maximum network latency = 197
Slowest packet = 3043
Minimum flit latency = 9
Average flit latency = 44.8148
Maximum flit latency = 197
Slowest flit = 3043
Minimum fragmentation = 0
Average fragmentation = 0
Maximum fragmentation = 0
Minimum injected packet rate = 0.064 (at node 4)
Average injected packet rate = 0.0718125
Maximum injected packet rate = 0.081 (at node 6)
Minimum accepted packet rate = 0.049 (at node 2)
Average accepted packet rate = 0.069875
Maximum accepted packet rate = 0.08 (at node 11)
Minimum injected flit rate = 0.064 (at node 4)
Average injected flit rate = 0.0718125
Maximum injected flit rate = 0.081 (at node 6)
Minimum accepted flit rate = 0.049 (at node 2)
Average accepted flit rate = 0.069875
Maximum accepted flit rate = 0.08 (at node 11)
Total number of injected packets = 1149
Total number of injected flits = 1149
Average injected packet length = 1
Total number of accepted packets = 1118
Total number of accepted flits = 1118
Average accepted packet length = 1
Total in-flight flits = 77 (0 measured)
===== Time: 4000 =====
Class 0:
Minimum packet latency = 8
Average packet latency = 43.5164
Maximum packet latency = 120
Minimum network latency = 9
Average network latency = 44.5164
Maximum network latency = 121
Slowest packet = 3952
Minimum flit latency = 9
Average flit latency = 46.0549
Maximum flit latency = 182
Slowest flit = 3087
Minimum fragmentation = 0
Average fragmentation = 0
Maximum fragmentation = 0
Minimum injected packet rate = 0.051 (at node 0)
Average injected packet rate = 0.067875
Maximum injected packet rate = 0.083 (at node 15)
Minimum accepted packet rate = 0.05 (at node 4)
Average accepted packet rate = 0.0694375
Maximum accepted packet rate = 0.094 (at node 8)
Minimum injected flit rate = 0.051 (at node 0)
Average injected flit rate = 0.067875
Maximum injected flit rate = 0.083 (at node 15)
Minimum accepted flit rate = 0.05 (at node 4)
Average accepted flit rate = 0.0694375
Maximum accepted flit rate = 0.094 (at node 8)
Total number of injected packets = 1086
Total number of injected flits = 1086
Average injected packet length = 1
Total number of accepted packets = 1111
Total number of accepted flits = 1111
Average accepted packet length = 1
Total in-flight flits = 52 (52 measured)
===== Time: 5000 =====
Class 0:
Minimum packet latency = 8
Average packet latency = 43.4149
Maximum packet latency = 120
Minimum network latency = 9
Average network latency = 44.4149
Maximum network latency = 121
Slowest packet = 3952
Minimum flit latency = 9
Average flit latency = 45.2004
Maximum flit latency = 182
Slowest flit = 3087
Minimum fragmentation = 0
Average fragmentation = 0
Maximum fragmentation = 0
Minimum injected packet rate = 0.059 (at node 0)
Average injected packet rate = 0.0675625
Maximum injected packet rate = 0.0795 (at node 15)
Minimum accepted packet rate = 0.0545 (at node 4)
Average accepted packet rate = 0.0683125
Maximum accepted packet rate = 0.077 (at node 11)
Minimum injected flit rate = 0.059 (at node 0)
Average injected flit rate = 0.0675625
Maximum injected flit rate = 0.0795 (at node 15)
Minimum accepted flit rate = 0.0545 (at node 4)
Average accepted flit rate = 0.0683125
Maximum accepted flit rate = 0.077 (at node 11)
Total number of injected packets = 2162
Total number of injected flits = 2162
Average injected packet length = 1
Total number of accepted packets = 2186
Total number of accepted flits = 2186
Average accepted packet length = 1
Total in-flight flits = 53 (53 measured)
===== Time: 6000 =====
Class 0:
Minimum packet latency = 8
Average packet latency = 43.2355
Maximum packet latency = 128
Minimum network latency = 9
Average network latency = 44.2355
Maximum network latency = 129
Slowest packet = 6159
Minimum flit latency = 9
Average flit latency = 44.76
Maximum flit latency = 182
Slowest flit = 3087
Minimum fragmentation = 0
Average fragmentation = 0
Maximum fragmentation = 0
Minimum injected packet rate = 0.0623333 (at node 0)
Average injected packet rate = 0.0681875
Maximum injected packet rate = 0.08 (at node 15)
Minimum accepted packet rate = 0.0566667 (at node 4)
Average accepted packet rate = 0.06875
Maximum accepted packet rate = 0.0766667 (at node 2)
Minimum injected flit rate = 0.0623333 (at node 0)
Average injected flit rate = 0.0681875
Maximum injected flit rate = 0.08 (at node 15)
Minimum accepted flit rate = 0.0566667 (at node 4)
Average accepted flit rate = 0.06875
Maximum accepted flit rate = 0.0766667 (at node 2)
Total number of injected packets = 3273
Total number of injected flits = 3273
Average injected packet length = 1
Total number of accepted packets = 3300
Total number of accepted flits = 3300
Average accepted packet length = 1
Total in-flight flits = 50 (50 measured)
Draining remaining packets ...
Class 0:
Remaining flits: 6507 6509 6522 6523 6526 6528 6531 6534 6535 6538 [...] (35 flits)
Measured flits: 6507 6509 6522 6523 6526 6528 6531 6534 6535 6538 [...] (35 flits)
Class 0:
Remaining flits: 6522 6528 6534 6535 6538 6539 6542 6544 6550 6551 [...] (26 flits)
Measured flits: 6522 6528 6534 6535 6538 6539 6542 6544 6550 6551 [...] (26 flits)
Class 0:
Remaining flits: 6539 6544 6550 6554 6555 6558 6560 6561 6562 6565 [...] (14 flits)
Measured flits: 6539 6544 6550 6554 6555 6558 6560 6561 6562 6565 [...] (14 flits)
Class 0:
Remaining flits: 6539 6544 6562 6565 6566 6568 6569 6571 (8 flits)
Measured flits: 6539 6544 6562 6565 6566 6568 6569 6571 (8 flits)
Class 0:
Remaining flits: 6544 6569 6571 (3 flits)
Measured flits: 6544 6569 6571 (3 flits)
Class 0:
Remaining flits: 6544 6569 6571 (3 flits)
Measured flits: 6544 6569 6571 (3 flits)
Class 0:
Remaining flits: (0 flits)
Measured flits: (0 flits)
Class 0:
Remaining flits: (0 flits)
Measured flits: (0 flits)
Class 0:
Remaining flits: (0 flits)
Measured flits: (0 flits)
Class 0:
Remaining flits: (0 flits)
Measured flits: (0 flits)
Class 0:
Remaining flits: (0 flits)
Measured flits: (0 flits)
Class 0:
Remaining flits: (0 flits)
Measured flits: (0 flits)
Class 0:
Remaining flits: (0 flits)
Measured flits: (0 flits)
Class 0:
Remaining flits: (0 flits)
Measured flits: (0 flits)
Class 0:
Remaining flits: (0 flits)
Measured flits: (0 flits)
Class 0:
Remaining flits: (0 flits)
Measured flits: (0 flits)
Class 0:
Remaining flits: (0 flits)
Measured flits: (0 flits)
Class 0:
Remaining flits: (0 flits)
Measured flits: (0 flits)
Class 0:
Remaining flits: (0 flits)
Measured flits: (0 flits)
Class 0:
Remaining flits: (0 flits)
Measured flits: (0 flits)
Class 0:
Remaining flits: (0 flits)
Measured flits: (0 flits)
Class 0:
Remaining flits: (0 flits)
Measured flits: (0 flits)
Class 0:
Remaining flits: (0 flits)
Measured flits: (0 flits)
Class 0:
Remaining flits: (0 flits)
Measured flits: (0 flits)
Class 0:
Remaining flits: (0 flits)
Measured flits: (0 flits)
Class 0:
Remaining flits: (0 flits)
Measured flits: (0 flits)
Class 0:
Remaining flits: (0 flits)
Measured flits: (0 flits)
Class 0:
Remaining flits: (0 flits)
Measured flits: (0 flits)
Class 0:
Remaining flits: (0 flits)
Measured flits: (0 flits)
Class 0:
Remaining flits: (0 flits)
Measured flits: (0 flits)
Class 0:
Remaining flits: (0 flits)
Measured flits: (0 flits)
Class 0:
Remaining flits: (0 flits)
Measured flits: (0 flits)
Class 0:
Remaining flits: (0 flits)
Measured flits: (0 flits)
Class 0:
Remaining flits: (0 flits)
Measured flits: (0 flits)
Class 0:
Remaining flits: (0 flits)
Measured flits: (0 flits)
Class 0:
Remaining flits: (0 flits)
Measured flits: (0 flits)
Class 0:
Remaining flits: (0 flits)
Measured flits: (0 flits)
Class 0:
Remaining flits: (0 flits)
Measured flits: (0 flits)
Class 0:
Remaining flits: (0 flits)
Measured flits: (0 flits)
Class 0:
Remaining flits: (0 flits)
Measured flits: (0 flits)
Class 0:
Remaining flits: (0 flits)
Measured flits: (0 flits)
Class 0:
Remaining flits: (0 flits)
Measured flits: (0 flits)
Class 0:
Remaining flits: (0 flits)
Measured flits: (0 flits)
Class 0:
Remaining flits: (0 flits)
Measured flits: (0 flits)
Class 0:
Remaining flits: (0 flits)
Measured flits: (0 flits)
Class 0:
Remaining flits: (0 flits)
Measured flits: (0 flits)
Class 0:
Remaining flits: (0 flits)
Measured flits: (0 flits)
Class 0:
Remaining flits: (0 flits)
Measured flits: (0 flits)
Class 0:
Remaining flits: (0 flits)
Measured flits: (0 flits)
Class 0:
Remaining flits: (0 flits)
Measured flits: (0 flits)
Class 0:
Remaining flits: (0 flits)
Measured flits: (0 flits)
Class 0:
Remaining flits: (0 flits)
Measured flits: (0 flits)
Class 0:
Remaining flits: (0 flits)
Measured flits: (0 flits)
Class 0:
Remaining flits: (0 flits)
Measured flits: (0 flits)
Class 0:
Remaining flits: (0 flits)
Measured flits: (0 flits)
Class 0:
Remaining flits: (0 flits)
Measured flits: (0 flits)
Class 0:
Remaining flits: (0 flits)
Measured flits: (0 flits)
Class 0:
Remaining flits: (0 flits)
Measured flits: (0 flits)
Class 0:
Remaining flits: (0 flits)
Measured flits: (0 flits)
Class 0:
Remaining flits: (0 flits)
Measured flits: (0 flits)
Class 0:
Remaining flits: (0 flits)
Measured flits: (0 flits)
Class 0:
Remaining flits: (0 flits)
Measured flits: (0 flits)
Class 0:
Remaining flits: (0 flits)
Measured flits: (0 flits)
Class 0:
Remaining flits: (0 flits)
Measured flits: (0 flits)
Class 0:
Remaining flits: (0 flits)
Measured flits: (0 flits)
Class 0:
Remaining flits: (0 flits)
Measured flits: (0 flits)
Class 0:
Remaining flits: (0 flits)
Measured flits: (0 flits)
Class 0:
Remaining flits: (0 flits)
Measured flits: (0 flits)
Class 0:
Remaining flits: (0 flits)
Measured flits: (0 flits)
Class 0:
Remaining flits: (0 flits)
Measured flits: (0 flits)
Class 0:
Remaining flits: (0 flits)
Measured flits: (0 flits)
Class 0:
Remaining flits: (0 flits)
Measured flits: (0 flits)
Class 0:
Remaining flits: (0 flits)
Measured flits: (0 flits)
Class 0:
Remaining flits: (0 flits)
Measured flits: (0 flits)
Class 0:
Remaining flits: (0 flits)
Measured flits: (0 flits)
Class 0:
Remaining flits: (0 flits)
Measured flits: (0 flits)
Class 0:
Remaining flits: (0 flits)
Measured flits: (0 flits)
Class 0:
Remaining flits: (0 flits)
Measured flits: (0 flits)
Class 0:
Remaining flits: (0 flits)
Measured flits: (0 flits)
Class 0:
Remaining flits: (0 flits)
Measured flits: (0 flits)
Class 0:
Remaining flits: (0 flits)
Measured flits: (0 flits)
Class 0:
Remaining flits: (0 flits)
Measured flits: (0 flits)
Class 0:
Remaining flits: (0 flits)
Measured flits: (0 flits)
Class 0:
Remaining flits: (0 flits)
Measured flits: (0 flits)
Class 0:
Remaining flits: (0 flits)
Measured flits: (0 flits)
Class 0:
Remaining flits: (0 flits)
Measured flits: (0 flits)
Class 0:
Remaining flits: (0 flits)
Measured flits: (0 flits)
Class 0:
Remaining flits: (0 flits)
Measured flits: (0 flits)
Class 0:
Remaining flits: (0 flits)
Measured flits: (0 flits)
Class 0:
Remaining flits: (0 flits)
Measured flits: (0 flits)
Class 0:
Remaining flits: (0 flits)
Measured flits: (0 flits)
Class 0:
Remaining flits: (0 flits)
Measured flits: (0 flits)
Class 0:
Remaining flits: (0 flits)
Measured flits: (0 flits)
Class 0:
Remaining flits: (0 flits)
Measured flits: (0 flits)
Class 0:
Remaining flits: (0 flits)
Measured flits: (0 flits)
Class 0:
Remaining flits: (0 flits)
Measured flits: (0 flits)
Class 0:
Remaining flits: (0 flits)
Measured flits: (0 flits)
Class 0:
Remaining flits: (0 flits)
Measured flits: (0 flits)
Class 0:
Remaining flits: (0 flits)
Measured flits: (0 flits)
Class 0:
Remaining flits: (0 flits)
Measured flits: (0 flits)
Class 0:
Remaining flits: (0 flits)
Measured flits: (0 flits)
Time taken is 7000 cycles
====== Traffic class 0 ======

Total number of flits generated = 6573, changed lanes = 6256
Overall minimum packet latency = 8 (1 samples)
Overall average packet latency = 43.3349 (1 samples)
Overall maximum packet latency = 128 (1 samples)
Overall minimum network latency = 9 (1 samples)
Overall average network latency = 44.3349 (1 samples)
Overall maximum network latency = 129 (1 samples)
Overall minimum flit latency = 9 (1 samples)
Overall average flit latency = 44.8493 (1 samples)
Overall maximum flit latency = 182 (1 samples)
Overall minimum fragmentation = 0 (1 samples)
Overall average fragmentation = 0 (1 samples)
Overall maximum fragmentation = 0 (1 samples)
Overall minimum injected packet rate = 0.0623333 (1 samples)
Overall average injected packet rate = 0.0681875 (1 samples)
Overall maximum injected packet rate = 0.08 (1 samples)
Overall minimum accepted packet rate = 0.0566667 (1 samples)
Overall average accepted packet rate = 0.06875 (1 samples)
Overall maximum accepted packet rate = 0.0766667 (1 samples)
Overall minimum injected flit rate = 0.0623333 (1 samples)
Overall average injected flit rate = 0.0681875 (1 samples)
Overall maximum injected flit rate = 0.08 (1 samples)
Overall minimum accepted flit rate = 0.0566667 (1 samples)
Overall average accepted flit rate = 0.06875 (1 samples)
Overall maximum accepted flit rate = 0.0766667 (1 samples)
Overall average injected packet size = 1 (1 samples)
Overall average accepted packet size = 1 (1 samples)
Overall average hops = 3.48304 (1 samples)
Overall throughput of the network (flits/cycle) = 2.191
Overall throughput of the network (packets/cycle) = 2.191
Total run time 7.76274
