make: Nothing to be done for 'all'.
Master: Running timer....
Master: Running SRC....
BEGIN Configuration File: ./examples/bitrev
// Topology

topology = mesh;
k = 4;
n = 2;

// Routing
routing_function = dor;

// Flow control
num_vcs     = 4;
vc_buf_size = 4;
wait_for_tail_credit = 0;

// Router architecture
vc_allocator = islip;
sw_allocator = islip;
alloc_iters  = 1;

credit_delay   = 1;
routing_delay  = 1;
vc_alloc_delay = 1;
sw_alloc_delay = 1;

input_speedup     = 1;
output_speedup    = 1;
internal_speedup  = 1.0;

vc_busy_when_full = 0;

// Traffic
traffic = uniform;
packet_size = 1;

// Simulation
sim_type = throughput;

injection_rate = 0.25;

END Configuration File: ./examples/bitrev
===== Time: 1000 =====
Class 0:
Minimum packet latency = 12
Average packet latency = 200.954
Maximum packet latency = 472
Minimum network latency = 13
Average network latency = 138.138
Maximum network latency = 327
Slowest packet = 658
Minimum flit latency = 13
Average flit latency = 138.138
Maximum flit latency = 327
Slowest flit = 1588
Minimum fragmentation = 0
Average fragmentation = 0
Maximum fragmentation = 0
Minimum injected packet rate = 0.172 (at node 9)
Average injected packet rate = 0.17975
Maximum injected packet rate = 0.182 (at node 2)
Minimum accepted packet rate = 0.136 (at node 14)
Average accepted packet rate = 0.151688
Maximum accepted packet rate = 0.167 (at node 15)
Minimum injected flit rate = 0.172 (at node 9)
Average injected flit rate = 0.17975
Maximum injected flit rate = 0.182 (at node 2)
Minimum accepted flit rate = 0.136 (at node 14)
Average accepted flit rate = 0.151688
Maximum accepted flit rate = 0.167 (at node 15)
Total number of injected packets = 2876
Total number of injected flits = 2876
Average injected packet length = 1
Total number of accepted packets = 2427
Total number of accepted flits = 2427
Average accepted packet length = 1
Total in-flight flits = 461 (0 measured)
===== Time: 2000 =====
Class 0:
Minimum packet latency = 12
Average packet latency = 374.365
Maximum packet latency = 934
Minimum network latency = 13
Average network latency = 158.13
Maximum network latency = 473
Slowest packet = 658
Minimum flit latency = 13
Average flit latency = 158.13
Maximum flit latency = 473
Slowest flit = 4102
Minimum fragmentation = 0
Average fragmentation = 0
Maximum fragmentation = 0
Minimum injected packet rate = 0.127 (at node 8)
Average injected packet rate = 0.166906
Maximum injected packet rate = 0.1745 (at node 7)
Minimum accepted packet rate = 0.142 (at node 4)
Average accepted packet rate = 0.153625
Maximum accepted packet rate = 0.1685 (at node 15)
Minimum injected flit rate = 0.127 (at node 8)
Average injected flit rate = 0.166906
Maximum injected flit rate = 0.1745 (at node 7)
Minimum accepted flit rate = 0.142 (at node 4)
Average accepted flit rate = 0.153625
Maximum accepted flit rate = 0.1685 (at node 15)
Total number of injected packets = 5341
Total number of injected flits = 5341
Average injected packet length = 1
Total number of accepted packets = 4916
Total number of accepted flits = 4916
Average accepted packet length = 1
Total in-flight flits = 434 (0 measured)
===== Time: 3000 =====
Class 0:
Minimum packet latency = 521
Average packet latency = 886.767
Maximum packet latency = 1295
Minimum network latency = 94
Average network latency = 170.017
Maximum network latency = 439
Slowest packet = 4735
Minimum flit latency = 94
Average flit latency = 170.017
Maximum flit latency = 439
Slowest flit = 4362
Minimum fragmentation = 0
Average fragmentation = 0
Maximum fragmentation = 0
Minimum injected packet rate = 0 (at node 8)
Average injected packet rate = 0.152312
Maximum injected packet rate = 0.167 (at node 0)
Minimum accepted packet rate = 0.13 (at node 4)
Average accepted packet rate = 0.1505
Maximum accepted packet rate = 0.168 (at node 2)
Minimum injected flit rate = 0 (at node 8)
Average injected flit rate = 0.152312
Maximum injected flit rate = 0.167 (at node 0)
Minimum accepted flit rate = 0.13 (at node 4)
Average accepted flit rate = 0.1505
Maximum accepted flit rate = 0.168 (at node 2)
Total number of injected packets = 2437
Total number of injected flits = 2437
Average injected packet length = 1
Total number of accepted packets = 2408
Total number of accepted flits = 2408
Average accepted packet length = 1
Total in-flight flits = 466 (0 measured)
===== Time: 4000 =====
Class 0:
Minimum packet latency = 908
Average packet latency = 1256.06
Maximum packet latency = 1615
Minimum network latency = 94
Average network latency = 165.701
Maximum network latency = 402
Slowest packet = 7798
Minimum flit latency = 94
Average flit latency = 170.15
Maximum flit latency = 443
Slowest flit = 7782
Minimum fragmentation = 0
Average fragmentation = 0
Maximum fragmentation = 0
Minimum injected packet rate = 0 (at node 8)
Average injected packet rate = 0.152688
Maximum injected packet rate = 0.167 (at node 12)
Minimum accepted packet rate = 0.132 (at node 4)
Average accepted packet rate = 0.154125
Maximum accepted packet rate = 0.177 (at node 7)
Minimum injected flit rate = 0 (at node 8)
Average injected flit rate = 0.152688
Maximum injected flit rate = 0.167 (at node 12)
Minimum accepted flit rate = 0.132 (at node 4)
Average accepted flit rate = 0.154125
Maximum accepted flit rate = 0.177 (at node 7)
Total number of injected packets = 2443
Total number of injected flits = 2443
Average injected packet length = 1
Total number of accepted packets = 2466
Total number of accepted flits = 2466
Average accepted packet length = 1
Total in-flight flits = 446 (424 measured)
===== Time: 5000 =====
Class 0:
Minimum packet latency = 908
Average packet latency = 1433.33
Maximum packet latency = 2024
Minimum network latency = 93
Average network latency = 165.368
Maximum network latency = 402
Slowest packet = 7798
Minimum flit latency = 93
Average flit latency = 167.638
Maximum flit latency = 443
Slowest flit = 7782
Minimum fragmentation = 0
Average fragmentation = 0
Maximum fragmentation = 0
Minimum injected packet rate = 0 (at node 8)
Average injected packet rate = 0.153031
Maximum injected packet rate = 0.1665 (at node 12)
Minimum accepted packet rate = 0.1335 (at node 4)
Average accepted packet rate = 0.153062
Maximum accepted packet rate = 0.171 (at node 7)
Minimum injected flit rate = 0 (at node 8)
Average injected flit rate = 0.153031
Maximum injected flit rate = 0.1665 (at node 12)
Minimum accepted flit rate = 0.1335 (at node 4)
Average accepted flit rate = 0.153062
Maximum accepted flit rate = 0.171 (at node 7)
Total number of injected packets = 4897
Total number of injected flits = 4897
Average injected packet length = 1
Total number of accepted packets = 4898
Total number of accepted flits = 4898
Average accepted packet length = 1
Total in-flight flits = 467 (445 measured)
===== Time: 6000 =====
Class 0:
Minimum packet latency = 908
Average packet latency = 1611.83
Maximum packet latency = 2395
Minimum network latency = 93
Average network latency = 168.924
Maximum network latency = 487
Slowest packet = 7798
Minimum flit latency = 93
Average flit latency = 170.232
Maximum flit latency = 487
Slowest flit = 13110
Minimum fragmentation = 0
Average fragmentation = 0
Maximum fragmentation = 0
Minimum injected packet rate = 0 (at node 8)
Average injected packet rate = 0.152125
Maximum injected packet rate = 0.166667 (at node 12)
Minimum accepted packet rate = 0.137 (at node 4)
Average accepted packet rate = 0.151917
Maximum accepted packet rate = 0.166 (at node 7)
Minimum injected flit rate = 0 (at node 8)
Average injected flit rate = 0.152125
Maximum injected flit rate = 0.166667 (at node 12)
Minimum accepted flit rate = 0.137 (at node 4)
Average accepted flit rate = 0.151917
Maximum accepted flit rate = 0.166 (at node 7)
Total number of injected packets = 7302
Total number of injected flits = 7302
Average injected packet length = 1
Total number of accepted packets = 7292
Total number of accepted flits = 7292
Average accepted packet length = 1
Total in-flight flits = 478 (456 measured)
Draining remaining packets ...
Class 0:
Remaining flits: 3610 3688 3706 3723 3738 3755 3766 3783 3799 3817 [...] (450 flits)
Measured flits: 14262 14280 14291 14305 14322 14396 14423 14438 14452 14467 [...] (428 flits)
Class 0:
Remaining flits: 3610 3688 3706 3723 3738 3755 3766 3783 3799 3817 [...] (428 flits)
Measured flits: 14262 14291 14305 14322 14396 14423 14438 14452 14467 14482 [...] (406 flits)
Class 0:
Remaining flits: 3610 3688 3706 3723 3738 3755 3766 3783 3799 3817 [...] (392 flits)
Measured flits: 14262 14291 14322 14396 14423 14438 14452 14467 14482 14492 [...] (370 flits)
Class 0:
Remaining flits: 3610 3688 3706 3723 3738 3755 3766 3783 3799 3817 [...] (367 flits)
Measured flits: 14262 14291 14322 14396 14423 14438 14452 14467 14492 14503 [...] (345 flits)
Class 0:
Remaining flits: 3610 3688 3706 3723 3738 3755 3766 3783 3799 3817 [...] (340 flits)
Measured flits: 14262 14291 14396 14423 14438 14467 14503 14508 14510 14528 [...] (318 flits)
Class 0:
Remaining flits: 3610 3688 3706 3723 3738 3755 3766 3783 3799 3817 [...] (316 flits)
Measured flits: 14262 14291 14396 14423 14438 14467 14503 14510 14528 14539 [...] (294 flits)
Class 0:
Remaining flits: 3610 3688 3706 3723 3738 3755 3766 3783 3799 3817 [...] (289 flits)
Measured flits: 14262 14291 14396 14423 14438 14467 14503 14510 14541 14544 [...] (267 flits)
Class 0:
Remaining flits: 3610 3688 3706 3723 3738 3755 3766 3783 3799 3817 [...] (262 flits)
Measured flits: 14262 14291 14396 14423 14438 14467 14503 14544 14570 14583 [...] (240 flits)
Class 0:
Remaining flits: 3610 3688 3706 3723 3738 3755 3766 3783 3799 3817 [...] (235 flits)
Measured flits: 14396 14423 14438 14467 14503 14544 14583 14586 14623 14655 [...] (213 flits)
Class 0:
Remaining flits: 3610 3688 3706 3723 3738 3755 3766 3783 3799 3817 [...] (214 flits)
Measured flits: 14396 14423 14438 14467 14544 14583 14586 14623 14655 14670 [...] (192 flits)
Class 0:
Remaining flits: 3610 3688 3706 3723 3738 3755 3766 3783 3799 3817 [...] (190 flits)
Measured flits: 14396 14438 14467 14544 14583 14586 14623 14655 14670 14707 [...] (168 flits)
Class 0:
Remaining flits: 3610 3688 3706 3723 3738 3755 3766 3783 3799 3817 [...] (172 flits)
Measured flits: 14396 14438 14467 14544 14583 14586 14623 14655 14670 14707 [...] (150 flits)
Class 0:
Remaining flits: 3610 3688 3706 3723 3738 3755 3766 3783 3799 3817 [...] (149 flits)
Measured flits: 14396 14467 14544 14583 14655 14707 14725 14736 14741 14765 [...] (127 flits)
Class 0:
Remaining flits: 3610 3688 3706 3723 3738 3755 3766 3783 3799 3817 [...] (135 flits)
Measured flits: 14396 14467 14544 14583 14655 14707 14725 14736 14741 14765 [...] (113 flits)
Class 0:
Remaining flits: 3610 3688 3706 3723 3738 3755 3766 3783 3799 3817 [...] (122 flits)
Measured flits: 14396 14467 14544 14655 14707 14725 14741 14781 14807 14834 [...] (100 flits)
Class 0:
Remaining flits: 3610 3688 3706 3723 3738 3755 3766 3783 3799 3817 [...] (105 flits)
Measured flits: 14467 14544 14655 14707 14725 14741 14781 14807 14834 14848 [...] (83 flits)
Class 0:
Remaining flits: 3610 3688 3706 3723 3738 3755 3766 3783 3799 3817 [...] (91 flits)
Measured flits: 14467 14544 14655 14725 14781 14807 14834 14848 14866 14877 [...] (69 flits)
Class 0:
Remaining flits: 3610 3688 3706 3723 3738 3755 3766 3783 3799 3817 [...] (78 flits)
Measured flits: 14544 14655 14725 14807 14834 14848 14866 14877 14879 14883 [...] (56 flits)
Class 0:
Remaining flits: 3610 3688 3706 3723 3738 3755 3766 3783 3799 3817 [...] (63 flits)
Measured flits: 14725 14807 14834 14848 14877 14883 14934 14942 14943 14952 [...] (41 flits)
Class 0:
Remaining flits: 3610 3688 3706 3723 3738 3755 3766 3783 3799 3817 [...] (58 flits)
Measured flits: 14725 14834 14848 14883 14934 14942 14943 14956 14964 14967 [...] (36 flits)
Class 0:
Remaining flits: 3610 3688 3706 3723 3738 3755 3766 3783 3799 3817 [...] (53 flits)
Measured flits: 14725 14834 14848 14883 14934 14942 14943 14964 14967 14976 [...] (31 flits)
Class 0:
Remaining flits: 3610 3688 3706 3723 3738 3755 3766 3783 3799 3817 [...] (46 flits)
Measured flits: 14725 14834 14848 14934 14964 14967 14976 14982 14994 14998 [...] (24 flits)
Class 0:
Remaining flits: 3610 3688 3706 3723 3738 3755 3766 3783 3799 3817 [...] (39 flits)
Measured flits: 14725 14834 14848 14964 14994 14998 15010 15020 15024 15027 [...] (17 flits)
Class 0:
Remaining flits: 3610 3688 3706 3723 3738 3755 3766 3783 3799 3817 [...] (39 flits)
Measured flits: 14725 14834 14848 14964 14994 14998 15010 15020 15024 15027 [...] (17 flits)
Class 0:
Remaining flits: 3610 3688 3706 3723 3738 3755 3766 3783 3799 3817 [...] (37 flits)
Measured flits: 14725 14834 14848 14964 14994 14998 15010 15024 15060 15074 [...] (15 flits)
Class 0:
Remaining flits: 3610 3688 3706 3723 3738 3755 3766 3783 3799 3817 [...] (36 flits)
Measured flits: 14725 14834 14848 14964 14994 14998 15010 15024 15074 15081 [...] (14 flits)
Class 0:
Remaining flits: 3610 3688 3706 3723 3738 3755 3766 3783 3799 3817 [...] (33 flits)
Measured flits: 14834 14848 14998 15010 15024 15074 15081 15084 15088 15089 [...] (11 flits)
Class 0:
Remaining flits: 3610 3688 3706 3723 3738 3755 3766 3783 3799 3817 [...] (31 flits)
Measured flits: 14848 15010 15024 15074 15081 15084 15088 15089 15090 (9 flits)
Class 0:
Remaining flits: 3610 3688 3706 3723 3738 3755 3766 3783 3799 3817 [...] (31 flits)
Measured flits: 14848 15010 15024 15074 15081 15084 15088 15089 15090 (9 flits)
Class 0:
Remaining flits: 3610 3688 3706 3723 3738 3755 3766 3783 3799 3817 [...] (29 flits)
Measured flits: 15024 15074 15081 15084 15088 15089 15090 (7 flits)
Class 0:
Remaining flits: 3610 3688 3706 3723 3738 3755 3766 3783 3799 3817 [...] (29 flits)
Measured flits: 15024 15074 15081 15084 15088 15089 15090 (7 flits)
Class 0:
Remaining flits: 3610 3688 3706 3723 3738 3755 3766 3783 3799 3817 [...] (29 flits)
Measured flits: 15024 15074 15081 15084 15088 15089 15090 (7 flits)
Class 0:
Remaining flits: 3610 3688 3706 3723 3738 3755 3766 3783 3799 3817 [...] (29 flits)
Measured flits: 15024 15074 15081 15084 15088 15089 15090 (7 flits)
Class 0:
Remaining flits: 3610 3688 3706 3723 3738 3755 3766 3783 3799 3817 [...] (29 flits)
Measured flits: 15024 15074 15081 15084 15088 15089 15090 (7 flits)
Class 0:
Remaining flits: 3610 3688 3706 3723 3738 3755 3766 3783 3799 3817 [...] (29 flits)
Measured flits: 15024 15074 15081 15084 15088 15089 15090 (7 flits)
Class 0:
Remaining flits: 3610 3688 3706 3723 3738 3755 3766 3783 3799 3817 [...] (29 flits)
Measured flits: 15024 15074 15081 15084 15088 15089 15090 (7 flits)
Class 0:
Remaining flits: 3610 3688 3706 3723 3738 3755 3766 3783 3799 3817 [...] (29 flits)
Measured flits: 15024 15074 15081 15084 15088 15089 15090 (7 flits)
Class 0:
Remaining flits: 3610 3688 3706 3723 3738 3755 3766 3783 3799 3817 [...] (29 flits)
Measured flits: 15024 15074 15081 15084 15088 15089 15090 (7 flits)
Class 0:
Remaining flits: 3610 3688 3706 3723 3738 3755 3766 3783 3799 3817 [...] (29 flits)
Measured flits: 15024 15074 15081 15084 15088 15089 15090 (7 flits)
Class 0:
Remaining flits: 3610 3688 3706 3723 3738 3755 3766 3783 3799 3817 [...] (29 flits)
Measured flits: 15024 15074 15081 15084 15088 15089 15090 (7 flits)
Class 0:
Remaining flits: 3610 3688 3706 3723 3738 3755 3766 3783 3799 3817 [...] (29 flits)
Measured flits: 15024 15074 15081 15084 15088 15089 15090 (7 flits)
Class 0:
Remaining flits: 3610 3688 3706 3723 3738 3755 3766 3783 3799 3817 [...] (29 flits)
Measured flits: 15024 15074 15081 15084 15088 15089 15090 (7 flits)
Class 0:
Remaining flits: 3610 3688 3706 3723 3738 3755 3766 3783 3799 3817 [...] (29 flits)
Measured flits: 15024 15074 15081 15084 15088 15089 15090 (7 flits)
Class 0:
Remaining flits: 3610 3688 3706 3723 3738 3755 3766 3783 3799 3817 [...] (29 flits)
Measured flits: 15024 15074 15081 15084 15088 15089 15090 (7 flits)
Class 0:
Remaining flits: 3610 3688 3706 3723 3738 3755 3766 3783 3799 3817 [...] (29 flits)
Measured flits: 15024 15074 15081 15084 15088 15089 15090 (7 flits)
Class 0:
Remaining flits: 3610 3688 3706 3723 3738 3755 3766 3783 3799 3817 [...] (29 flits)
Measured flits: 15024 15074 15081 15084 15088 15089 15090 (7 flits)
Class 0:
Remaining flits: 3610 3688 3706 3723 3738 3755 3766 3783 3799 3817 [...] (29 flits)
Measured flits: 15024 15074 15081 15084 15088 15089 15090 (7 flits)
Class 0:
Remaining flits: 3610 3688 3706 3723 3738 3755 3766 3783 3799 3817 [...] (29 flits)
Measured flits: 15024 15074 15081 15084 15088 15089 15090 (7 flits)
Class 0:
Remaining flits: 3610 3688 3706 3723 3738 3755 3766 3783 3799 3817 [...] (29 flits)
Measured flits: 15024 15074 15081 15084 15088 15089 15090 (7 flits)
Class 0:
Remaining flits: 3610 3688 3706 3723 3738 3755 3766 3783 3799 3817 [...] (29 flits)
Measured flits: 15024 15074 15081 15084 15088 15089 15090 (7 flits)
Class 0:
Remaining flits: 3610 3688 3706 3723 3738 3755 3766 3783 3799 3817 [...] (29 flits)
Measured flits: 15024 15074 15081 15084 15088 15089 15090 (7 flits)
Class 0:
Remaining flits: 3610 3688 3706 3723 3738 3755 3766 3783 3799 3817 [...] (29 flits)
Measured flits: 15024 15074 15081 15084 15088 15089 15090 (7 flits)
Class 0:
Remaining flits: 3610 3688 3706 3723 3738 3755 3766 3783 3799 3817 [...] (29 flits)
Measured flits: 15024 15074 15081 15084 15088 15089 15090 (7 flits)
Class 0:
Remaining flits: 3610 3688 3706 3723 3738 3755 3766 3783 3799 3817 [...] (29 flits)
Measured flits: 15024 15074 15081 15084 15088 15089 15090 (7 flits)
Class 0:
Remaining flits: 3610 3688 3706 3723 3738 3755 3766 3783 3799 3817 [...] (29 flits)
Measured flits: 15024 15074 15081 15084 15088 15089 15090 (7 flits)
Class 0:
Remaining flits: 3610 3688 3706 3723 3738 3755 3766 3783 3799 3817 [...] (29 flits)
Measured flits: 15024 15074 15081 15084 15088 15089 15090 (7 flits)
Class 0:
Remaining flits: 3610 3688 3706 3723 3738 3755 3766 3783 3799 3817 [...] (29 flits)
Measured flits: 15024 15074 15081 15084 15088 15089 15090 (7 flits)
Class 0:
Remaining flits: 3610 3688 3706 3723 3738 3755 3766 3783 3799 3817 [...] (29 flits)
Measured flits: 15024 15074 15081 15084 15088 15089 15090 (7 flits)
Class 0:
Remaining flits: 3610 3688 3706 3723 3738 3755 3766 3783 3799 3817 [...] (29 flits)
Measured flits: 15024 15074 15081 15084 15088 15089 15090 (7 flits)
Class 0:
Remaining flits: 3610 3688 3706 3723 3738 3755 3766 3783 3799 3817 [...] (29 flits)
Measured flits: 15024 15074 15081 15084 15088 15089 15090 (7 flits)
Class 0:
Remaining flits: 3610 3688 3706 3723 3738 3755 3766 3783 3799 3817 [...] (29 flits)
Measured flits: 15024 15074 15081 15084 15088 15089 15090 (7 flits)
Class 0:
Remaining flits: 3610 3688 3706 3723 3738 3755 3766 3783 3799 3817 [...] (29 flits)
Measured flits: 15024 15074 15081 15084 15088 15089 15090 (7 flits)
Class 0:
Remaining flits: 3610 3688 3706 3723 3738 3755 3766 3783 3799 3817 [...] (29 flits)
Measured flits: 15024 15074 15081 15084 15088 15089 15090 (7 flits)
Class 0:
Remaining flits: 3610 3688 3706 3723 3738 3755 3766 3783 3799 3817 [...] (29 flits)
Measured flits: 15024 15074 15081 15084 15088 15089 15090 (7 flits)
Class 0:
Remaining flits: 3610 3688 3706 3723 3738 3755 3766 3783 3799 3817 [...] (29 flits)
Measured flits: 15024 15074 15081 15084 15088 15089 15090 (7 flits)
Class 0:
Remaining flits: 3610 3688 3706 3723 3738 3755 3766 3783 3799 3817 [...] (29 flits)
Measured flits: 15024 15074 15081 15084 15088 15089 15090 (7 flits)
Class 0:
Remaining flits: 3610 3688 3706 3723 3738 3755 3766 3783 3799 3817 [...] (29 flits)
Measured flits: 15024 15074 15081 15084 15088 15089 15090 (7 flits)
Class 0:
Remaining flits: 3610 3688 3706 3723 3738 3755 3766 3783 3799 3817 [...] (29 flits)
Measured flits: 15024 15074 15081 15084 15088 15089 15090 (7 flits)
Class 0:
Remaining flits: 3610 3688 3706 3723 3738 3755 3766 3783 3799 3817 [...] (29 flits)
Measured flits: 15024 15074 15081 15084 15088 15089 15090 (7 flits)
Class 0:
Remaining flits: 3610 3688 3706 3723 3738 3755 3766 3783 3799 3817 [...] (29 flits)
Measured flits: 15024 15074 15081 15084 15088 15089 15090 (7 flits)
Class 0:
Remaining flits: 3610 3688 3706 3723 3738 3755 3766 3783 3799 3817 [...] (29 flits)
Measured flits: 15024 15074 15081 15084 15088 15089 15090 (7 flits)
Class 0:
Remaining flits: 3610 3688 3706 3723 3738 3755 3766 3783 3799 3817 [...] (29 flits)
Measured flits: 15024 15074 15081 15084 15088 15089 15090 (7 flits)
Class 0:
Remaining flits: 3610 3688 3706 3723 3738 3755 3766 3783 3799 3817 [...] (29 flits)
Measured flits: 15024 15074 15081 15084 15088 15089 15090 (7 flits)
Class 0:
Remaining flits: 3610 3688 3706 3723 3738 3755 3766 3783 3799 3817 [...] (29 flits)
Measured flits: 15024 15074 15081 15084 15088 15089 15090 (7 flits)
Class 0:
Remaining flits: 3610 3688 3706 3723 3738 3755 3766 3783 3799 3817 [...] (29 flits)
Measured flits: 15024 15074 15081 15084 15088 15089 15090 (7 flits)
Class 0:
Remaining flits: 3610 3688 3706 3723 3738 3755 3766 3783 3799 3817 [...] (29 flits)
Measured flits: 15024 15074 15081 15084 15088 15089 15090 (7 flits)
Class 0:
Remaining flits: 3610 3688 3706 3723 3738 3755 3766 3783 3799 3817 [...] (29 flits)
Measured flits: 15024 15074 15081 15084 15088 15089 15090 (7 flits)
Class 0:
Remaining flits: 3610 3688 3706 3723 3738 3755 3766 3783 3799 3817 [...] (29 flits)
Measured flits: 15024 15074 15081 15084 15088 15089 15090 (7 flits)
Class 0:
Remaining flits: 3610 3688 3706 3723 3738 3755 3766 3783 3799 3817 [...] (29 flits)
Measured flits: 15024 15074 15081 15084 15088 15089 15090 (7 flits)
Class 0:
Remaining flits: 3610 3688 3706 3723 3738 3755 3766 3783 3799 3817 [...] (29 flits)
Measured flits: 15024 15074 15081 15084 15088 15089 15090 (7 flits)
Class 0:
Remaining flits: 3610 3688 3706 3723 3738 3755 3766 3783 3799 3817 [...] (29 flits)
Measured flits: 15024 15074 15081 15084 15088 15089 15090 (7 flits)
Class 0:
Remaining flits: 3610 3688 3706 3723 3738 3755 3766 3783 3799 3817 [...] (29 flits)
Measured flits: 15024 15074 15081 15084 15088 15089 15090 (7 flits)
Class 0:
Remaining flits: 3610 3688 3706 3723 3738 3755 3766 3783 3799 3817 [...] (29 flits)
Measured flits: 15024 15074 15081 15084 15088 15089 15090 (7 flits)
Class 0:
Remaining flits: 3610 3688 3706 3723 3738 3755 3766 3783 3799 3817 [...] (29 flits)
Measured flits: 15024 15074 15081 15084 15088 15089 15090 (7 flits)
Class 0:
Remaining flits: 3610 3688 3706 3723 3738 3755 3766 3783 3799 3817 [...] (29 flits)
Measured flits: 15024 15074 15081 15084 15088 15089 15090 (7 flits)
Class 0:
Remaining flits: 3610 3688 3706 3723 3738 3755 3766 3783 3799 3817 [...] (29 flits)
Measured flits: 15024 15074 15081 15084 15088 15089 15090 (7 flits)
Class 0:
Remaining flits: 3610 3688 3706 3723 3738 3755 3766 3783 3799 3817 [...] (29 flits)
Measured flits: 15024 15074 15081 15084 15088 15089 15090 (7 flits)
Class 0:
Remaining flits: 3610 3688 3706 3723 3738 3755 3766 3783 3799 3817 [...] (29 flits)
Measured flits: 15024 15074 15081 15084 15088 15089 15090 (7 flits)
Class 0:
Remaining flits: 3610 3688 3706 3723 3738 3755 3766 3783 3799 3817 [...] (29 flits)
Measured flits: 15024 15074 15081 15084 15088 15089 15090 (7 flits)
Class 0:
Remaining flits: 3610 3688 3706 3723 3738 3755 3766 3783 3799 3817 [...] (29 flits)
Measured flits: 15024 15074 15081 15084 15088 15089 15090 (7 flits)
Class 0:
Remaining flits: 3610 3688 3706 3723 3738 3755 3766 3783 3799 3817 [...] (29 flits)
Measured flits: 15024 15074 15081 15084 15088 15089 15090 (7 flits)
Class 0:
Remaining flits: 3610 3688 3706 3723 3738 3755 3766 3783 3799 3817 [...] (29 flits)
Measured flits: 15024 15074 15081 15084 15088 15089 15090 (7 flits)
Class 0:
Remaining flits: 3610 3688 3706 3723 3738 3755 3766 3783 3799 3817 [...] (29 flits)
Measured flits: 15024 15074 15081 15084 15088 15089 15090 (7 flits)
Class 0:
Remaining flits: 3610 3688 3706 3723 3738 3755 3766 3783 3799 3817 [...] (29 flits)
Measured flits: 15024 15074 15081 15084 15088 15089 15090 (7 flits)
Class 0:
Remaining flits: 3610 3688 3706 3723 3738 3755 3766 3783 3799 3817 [...] (29 flits)
Measured flits: 15024 15074 15081 15084 15088 15089 15090 (7 flits)
Class 0:
Remaining flits: 3610 3688 3706 3723 3738 3755 3766 3783 3799 3817 [...] (29 flits)
Measured flits: 15024 15074 15081 15084 15088 15089 15090 (7 flits)
Class 0:
Remaining flits: 3610 3688 3706 3723 3738 3755 3766 3783 3799 3817 [...] (29 flits)
Measured flits: 15024 15074 15081 15084 15088 15089 15090 (7 flits)
Class 0:
Remaining flits: 3610 3688 3706 3723 3738 3755 3766 3783 3799 3817 [...] (29 flits)
Measured flits: 15024 15074 15081 15084 15088 15089 15090 (7 flits)
Class 0:
Remaining flits: 3610 3688 3706 3723 3738 3755 3766 3783 3799 3817 [...] (29 flits)
Measured flits: 15024 15074 15081 15084 15088 15089 15090 (7 flits)
Class 0:
Remaining flits: 3610 3688 3706 3723 3738 3755 3766 3783 3799 3817 [...] (29 flits)
Measured flits: 15024 15074 15081 15084 15088 15089 15090 (7 flits)
Class 0:
Remaining flits: 3610 3688 3706 3723 3738 3755 3766 3783 3799 3817 [...] (29 flits)
Measured flits: 15024 15074 15081 15084 15088 15089 15090 (7 flits)
Time taken is 7000 cycles
====== Traffic class 0 ======

Total number of flits generated = 15094, changed lanes = 14895
Overall minimum packet latency = 908 (1 samples)
Overall average packet latency = 1645.85 (1 samples)
Overall maximum packet latency = 2525 (1 samples)
Overall minimum network latency = 93 (1 samples)
Overall average network latency = 170.456 (1 samples)
Overall maximum network latency = 487 (1 samples)
Overall minimum flit latency = 93 (1 samples)
Overall average flit latency = 171.6 (1 samples)
Overall maximum flit latency = 487 (1 samples)
Overall minimum fragmentation = 0 (1 samples)
Overall average fragmentation = 0 (1 samples)
Overall maximum fragmentation = 0 (1 samples)
Overall minimum injected packet rate = 0 (1 samples)
Overall average injected packet rate = 0.152125 (1 samples)
Overall maximum injected packet rate = 0.166667 (1 samples)
Overall minimum accepted packet rate = 0.137 (1 samples)
Overall average accepted packet rate = 0.151917 (1 samples)
Overall maximum accepted packet rate = 0.166 (1 samples)
Overall minimum injected flit rate = 0 (1 samples)
Overall average injected flit rate = 0.152125 (1 samples)
Overall maximum injected flit rate = 0.166667 (1 samples)
Overall minimum accepted flit rate = 0.137 (1 samples)
Overall average accepted flit rate = 0.151917 (1 samples)
Overall maximum accepted flit rate = 0.166 (1 samples)
Overall average injected packet size = 1 (1 samples)
Overall average accepted packet size = 1 (1 samples)
Overall average hops = 3.49185 (1 samples)
Overall throughput of the network (flits/cycle) = 5.02167
Overall throughput of the network (packets/cycle) = 5.02167
Total run time 6812.38
