make: Nothing to be done for 'all'.
Master: Running timer....
Master: Running SRC....
BEGIN Configuration File: ./examples/bitrev
// Topology

topology = torus;
k = 4;
n = 2;

// Routing
routing_function = dim_order;

// Flow control
num_vcs     = 4;
vc_buf_size = 4;
wait_for_tail_credit = 0;

// Router architecture
vc_allocator = islip;
sw_allocator = islip;
alloc_iters  = 1;

credit_delay   = 1;
routing_delay  = 1;
vc_alloc_delay = 1;
sw_alloc_delay = 1;

input_speedup     = 1;
output_speedup    = 1;
internal_speedup  = 1.0;

vc_busy_when_full = 0;

// Traffic
traffic = uniform;
packet_size = 1;

// Simulation
sim_type = throughput;

injection_rate = 0.19;

END Configuration File: ./examples/bitrev
===== Time: 1000 =====
Class 0:
Minimum packet latency = 7
Average packet latency = 60.1352
Maximum packet latency = 281
Minimum network latency = 8
Average network latency = 56.353
Maximum network latency = 164
Slowest packet = 809
Minimum flit latency = 8
Average flit latency = 56.353
Maximum flit latency = 164
Slowest flit = 1994
Minimum fragmentation = 0
Average fragmentation = 0
Maximum fragmentation = 0
Minimum injected packet rate = 0.165 (at node 7)
Average injected packet rate = 0.18
Maximum injected packet rate = 0.205 (at node 3)
Minimum accepted packet rate = 0.152 (at node 4)
Average accepted packet rate = 0.167313
Maximum accepted packet rate = 0.191 (at node 8)
Minimum injected flit rate = 0.165 (at node 7)
Average injected flit rate = 0.18
Maximum injected flit rate = 0.205 (at node 3)
Minimum accepted flit rate = 0.152 (at node 4)
Average accepted flit rate = 0.167313
Maximum accepted flit rate = 0.191 (at node 8)
Total number of injected packets = 2880
Total number of injected flits = 2880
Average injected packet length = 1
Total number of accepted packets = 2677
Total number of accepted flits = 2677
Average accepted packet length = 1
Total in-flight flits = 207 (0 measured)
===== Time: 2000 =====
Class 0:
Minimum packet latency = 7
Average packet latency = 90.3308
Maximum packet latency = 444
Minimum network latency = 8
Average network latency = 65.7598
Maximum network latency = 175
Slowest packet = 809
Minimum flit latency = 8
Average flit latency = 65.7598
Maximum flit latency = 175
Slowest flit = 2752
Minimum fragmentation = 0
Average fragmentation = 0
Maximum fragmentation = 0
Minimum injected packet rate = 0.1675 (at node 8)
Average injected packet rate = 0.177906
Maximum injected packet rate = 0.1955 (at node 3)
Minimum accepted packet rate = 0.153 (at node 4)
Average accepted packet rate = 0.171063
Maximum accepted packet rate = 0.189 (at node 11)
Minimum injected flit rate = 0.1675 (at node 8)
Average injected flit rate = 0.177906
Maximum injected flit rate = 0.1955 (at node 3)
Minimum accepted flit rate = 0.153 (at node 4)
Average accepted flit rate = 0.171063
Maximum accepted flit rate = 0.189 (at node 11)
Total number of injected packets = 5693
Total number of injected flits = 5693
Average injected packet length = 1
Total number of accepted packets = 5474
Total number of accepted flits = 5474
Average accepted packet length = 1
Total in-flight flits = 225 (0 measured)
===== Time: 3000 =====
Class 0:
Minimum packet latency = 7
Average packet latency = 168.013
Maximum packet latency = 631
Minimum network latency = 8
Average network latency = 75.1983
Maximum network latency = 194
Slowest packet = 5359
Minimum flit latency = 8
Average flit latency = 75.1983
Maximum flit latency = 194
Slowest flit = 5681
Minimum fragmentation = 0
Average fragmentation = 0
Maximum fragmentation = 0
Minimum injected packet rate = 0.166 (at node 4)
Average injected packet rate = 0.174875
Maximum injected packet rate = 0.208 (at node 2)
Minimum accepted packet rate = 0.161 (at node 4)
Average accepted packet rate = 0.175563
Maximum accepted packet rate = 0.206 (at node 7)
Minimum injected flit rate = 0.166 (at node 4)
Average injected flit rate = 0.174875
Maximum injected flit rate = 0.208 (at node 2)
Minimum accepted flit rate = 0.161 (at node 4)
Average accepted flit rate = 0.175563
Maximum accepted flit rate = 0.206 (at node 7)
Total number of injected packets = 2798
Total number of injected flits = 2798
Average injected packet length = 1
Total number of accepted packets = 2809
Total number of accepted flits = 2809
Average accepted packet length = 1
Total in-flight flits = 213 (0 measured)
===== Time: 4000 =====
Class 0:
Minimum packet latency = 7
Average packet latency = 213.96
Maximum packet latency = 766
Minimum network latency = 8
Average network latency = 71.2381
Maximum network latency = 164
Slowest packet = 8496
Minimum flit latency = 8
Average flit latency = 73.9075
Maximum flit latency = 164
Slowest flit = 9745
Minimum fragmentation = 0
Average fragmentation = 0
Maximum fragmentation = 0
Minimum injected packet rate = 0.162 (at node 1)
Average injected packet rate = 0.180125
Maximum injected packet rate = 0.214 (at node 6)
Minimum accepted packet rate = 0.156 (at node 4)
Average accepted packet rate = 0.17975
Maximum accepted packet rate = 0.2 (at node 8)
Minimum injected flit rate = 0.162 (at node 1)
Average injected flit rate = 0.180125
Maximum injected flit rate = 0.214 (at node 6)
Minimum accepted flit rate = 0.156 (at node 4)
Average accepted flit rate = 0.17975
Maximum accepted flit rate = 0.2 (at node 8)
Total number of injected packets = 2882
Total number of injected flits = 2882
Average injected packet length = 1
Total number of accepted packets = 2876
Total number of accepted flits = 2876
Average accepted packet length = 1
Total in-flight flits = 221 (221 measured)
===== Time: 5000 =====
Class 0:
Minimum packet latency = 7
Average packet latency = 245.159
Maximum packet latency = 803
Minimum network latency = 8
Average network latency = 72.8753
Maximum network latency = 168
Slowest packet = 8496
Minimum flit latency = 8
Average flit latency = 74.1599
Maximum flit latency = 168
Slowest flit = 12902
Minimum fragmentation = 0
Average fragmentation = 0
Maximum fragmentation = 0
Minimum injected packet rate = 0.166 (at node 8)
Average injected packet rate = 0.178375
Maximum injected packet rate = 0.202 (at node 4)
Minimum accepted packet rate = 0.156 (at node 4)
Average accepted packet rate = 0.178281
Maximum accepted packet rate = 0.1915 (at node 8)
Minimum injected flit rate = 0.166 (at node 8)
Average injected flit rate = 0.178375
Maximum injected flit rate = 0.202 (at node 4)
Minimum accepted flit rate = 0.156 (at node 4)
Average accepted flit rate = 0.178281
Maximum accepted flit rate = 0.1915 (at node 8)
Total number of injected packets = 5708
Total number of injected flits = 5708
Average injected packet length = 1
Total number of accepted packets = 5705
Total number of accepted flits = 5705
Average accepted packet length = 1
Total in-flight flits = 219 (219 measured)
===== Time: 6000 =====
Class 0:
Minimum packet latency = 7
Average packet latency = 276.817
Maximum packet latency = 1063
Minimum network latency = 8
Average network latency = 73.755
Maximum network latency = 177
Slowest packet = 8496
Minimum flit latency = 8
Average flit latency = 74.5953
Maximum flit latency = 177
Slowest flit = 14544
Minimum fragmentation = 0
Average fragmentation = 0
Maximum fragmentation = 0
Minimum injected packet rate = 0.166333 (at node 8)
Average injected packet rate = 0.177187
Maximum injected packet rate = 0.193667 (at node 3)
Minimum accepted packet rate = 0.152 (at node 4)
Average accepted packet rate = 0.177042
Maximum accepted packet rate = 0.187333 (at node 12)
Minimum injected flit rate = 0.166333 (at node 8)
Average injected flit rate = 0.177187
Maximum injected flit rate = 0.193667 (at node 3)
Minimum accepted flit rate = 0.152 (at node 4)
Average accepted flit rate = 0.177042
Maximum accepted flit rate = 0.187333 (at node 12)
Total number of injected packets = 8505
Total number of injected flits = 8505
Average injected packet length = 1
Total number of accepted packets = 8498
Total number of accepted flits = 8498
Average accepted packet length = 1
Total in-flight flits = 221 (221 measured)
Draining remaining packets ...
Class 0:
Remaining flits: 16510 16617 16627 16632 16645 16652 16657 16658 16660 16662 [...] (197 flits)
Measured flits: 16510 16617 16627 16632 16645 16652 16657 16658 16660 16662 [...] (197 flits)
Class 0:
Remaining flits: 16510 16632 16645 16657 16660 16662 16663 16665 16676 16678 [...] (172 flits)
Measured flits: 16510 16632 16645 16657 16660 16662 16663 16665 16676 16678 [...] (172 flits)
Class 0:
Remaining flits: 16510 16645 16676 16678 16682 16692 16698 16701 16707 16710 [...] (150 flits)
Measured flits: 16510 16645 16676 16678 16682 16692 16698 16701 16707 16710 [...] (150 flits)
Class 0:
Remaining flits: 16510 16676 16678 16698 16713 16724 16730 16732 16743 16748 [...] (132 flits)
Measured flits: 16510 16676 16678 16698 16713 16724 16730 16732 16743 16748 [...] (132 flits)
Class 0:
Remaining flits: 16510 16676 16732 16743 16748 16751 16752 16755 16762 16776 [...] (117 flits)
Measured flits: 16510 16676 16732 16743 16748 16751 16752 16755 16762 16776 [...] (117 flits)
Class 0:
Remaining flits: 16510 16676 16743 16752 16762 16776 16786 16788 16789 16792 [...] (102 flits)
Measured flits: 16510 16676 16743 16752 16762 16776 16786 16788 16789 16792 [...] (102 flits)
Class 0:
Remaining flits: 16510 16676 16752 16786 16788 16794 16820 16829 16835 16836 [...] (91 flits)
Measured flits: 16510 16676 16752 16786 16788 16794 16820 16829 16835 16836 [...] (91 flits)
Class 0:
Remaining flits: 16510 16676 16829 16836 16839 16851 16852 16860 16862 16867 [...] (75 flits)
Measured flits: 16510 16676 16829 16836 16839 16851 16852 16860 16862 16867 [...] (75 flits)
Class 0:
Remaining flits: 16510 16676 16836 16851 16852 16867 16870 16872 16873 16876 [...] (65 flits)
Measured flits: 16510 16676 16836 16851 16852 16867 16870 16872 16873 16876 [...] (65 flits)
Class 0:
Remaining flits: 16510 16676 16836 16879 16885 16892 16898 16899 16904 16907 [...] (51 flits)
Measured flits: 16510 16676 16836 16879 16885 16892 16898 16899 16904 16907 [...] (51 flits)
Class 0:
Remaining flits: 16510 16676 16836 16892 16904 16909 16922 16925 16928 16929 [...] (37 flits)
Measured flits: 16510 16676 16836 16892 16904 16909 16922 16925 16928 16929 [...] (37 flits)
Class 0:
Remaining flits: 16510 16676 16904 16909 16928 16940 16944 16947 16948 16957 [...] (27 flits)
Measured flits: 16510 16676 16904 16909 16928 16940 16944 16947 16948 16957 [...] (27 flits)
Class 0:
Remaining flits: 16510 16676 16909 16944 16947 16948 16957 16964 16968 16974 [...] (21 flits)
Measured flits: 16510 16676 16909 16944 16947 16948 16957 16964 16968 16974 [...] (21 flits)
Class 0:
Remaining flits: 16510 16676 16909 16947 16957 16968 16974 16977 16982 16983 [...] (16 flits)
Measured flits: 16510 16676 16909 16947 16957 16968 16974 16977 16982 16983 [...] (16 flits)
Class 0:
Remaining flits: 16510 16676 16909 16947 16957 16968 16974 16977 16983 16989 [...] (14 flits)
Measured flits: 16510 16676 16909 16947 16957 16968 16974 16977 16983 16989 [...] (14 flits)
Class 0:
Remaining flits: 16510 16676 16909 16947 16957 16968 16974 16983 16989 16990 [...] (13 flits)
Measured flits: 16510 16676 16909 16947 16957 16968 16974 16983 16989 16990 [...] (13 flits)
Class 0:
Remaining flits: 16510 16676 16909 16947 16957 16968 16974 16983 16989 16990 [...] (13 flits)
Measured flits: 16510 16676 16909 16947 16957 16968 16974 16983 16989 16990 [...] (13 flits)
Class 0:
Remaining flits: 16510 16676 16909 16947 16957 16968 16974 16983 16989 16990 [...] (13 flits)
Measured flits: 16510 16676 16909 16947 16957 16968 16974 16983 16989 16990 [...] (13 flits)
Class 0:
Remaining flits: 16510 16676 16909 16947 16957 16968 16974 16983 16989 16990 [...] (13 flits)
Measured flits: 16510 16676 16909 16947 16957 16968 16974 16983 16989 16990 [...] (13 flits)
Class 0:
Remaining flits: 16510 16676 16909 16947 16957 16968 16974 16983 16989 16990 [...] (13 flits)
Measured flits: 16510 16676 16909 16947 16957 16968 16974 16983 16989 16990 [...] (13 flits)
Class 0:
Remaining flits: 16510 16676 16909 16947 16957 16968 16974 16983 16989 16990 [...] (13 flits)
Measured flits: 16510 16676 16909 16947 16957 16968 16974 16983 16989 16990 [...] (13 flits)
Class 0:
Remaining flits: 16510 16676 16909 16947 16957 16968 16974 16983 16989 16990 [...] (13 flits)
Measured flits: 16510 16676 16909 16947 16957 16968 16974 16983 16989 16990 [...] (13 flits)
Class 0:
Remaining flits: 16510 16676 16909 16947 16957 16968 16974 16983 16989 16990 [...] (13 flits)
Measured flits: 16510 16676 16909 16947 16957 16968 16974 16983 16989 16990 [...] (13 flits)
Class 0:
Remaining flits: 16510 16676 16909 16947 16957 16968 16974 16983 16989 16990 [...] (13 flits)
Measured flits: 16510 16676 16909 16947 16957 16968 16974 16983 16989 16990 [...] (13 flits)
Class 0:
Remaining flits: 16510 16676 16909 16947 16957 16968 16974 16983 16989 16990 [...] (13 flits)
Measured flits: 16510 16676 16909 16947 16957 16968 16974 16983 16989 16990 [...] (13 flits)
Class 0:
Remaining flits: 16510 16676 16909 16947 16957 16968 16974 16983 16989 16990 [...] (13 flits)
Measured flits: 16510 16676 16909 16947 16957 16968 16974 16983 16989 16990 [...] (13 flits)
Class 0:
Remaining flits: 16510 16676 16909 16947 16957 16968 16974 16983 16989 16990 [...] (13 flits)
Measured flits: 16510 16676 16909 16947 16957 16968 16974 16983 16989 16990 [...] (13 flits)
Class 0:
Remaining flits: 16510 16676 16909 16947 16957 16968 16974 16983 16989 16990 [...] (13 flits)
Measured flits: 16510 16676 16909 16947 16957 16968 16974 16983 16989 16990 [...] (13 flits)
Class 0:
Remaining flits: 16510 16676 16909 16947 16957 16968 16974 16983 16989 16990 [...] (13 flits)
Measured flits: 16510 16676 16909 16947 16957 16968 16974 16983 16989 16990 [...] (13 flits)
Class 0:
Remaining flits: 16510 16676 16909 16947 16957 16968 16974 16983 16989 16990 [...] (13 flits)
Measured flits: 16510 16676 16909 16947 16957 16968 16974 16983 16989 16990 [...] (13 flits)
Class 0:
Remaining flits: 16510 16676 16909 16947 16957 16968 16974 16983 16989 16990 [...] (13 flits)
Measured flits: 16510 16676 16909 16947 16957 16968 16974 16983 16989 16990 [...] (13 flits)
Class 0:
Remaining flits: 16510 16676 16909 16947 16957 16968 16974 16983 16989 16990 [...] (13 flits)
Measured flits: 16510 16676 16909 16947 16957 16968 16974 16983 16989 16990 [...] (13 flits)
Class 0:
Remaining flits: 16510 16676 16909 16947 16957 16968 16974 16983 16989 16990 [...] (13 flits)
Measured flits: 16510 16676 16909 16947 16957 16968 16974 16983 16989 16990 [...] (13 flits)
Class 0:
Remaining flits: 16510 16676 16909 16947 16957 16968 16974 16983 16989 16990 [...] (13 flits)
Measured flits: 16510 16676 16909 16947 16957 16968 16974 16983 16989 16990 [...] (13 flits)
Class 0:
Remaining flits: 16510 16676 16909 16947 16957 16968 16974 16983 16989 16990 [...] (13 flits)
Measured flits: 16510 16676 16909 16947 16957 16968 16974 16983 16989 16990 [...] (13 flits)
Class 0:
Remaining flits: 16510 16676 16909 16947 16957 16968 16974 16983 16989 16990 [...] (13 flits)
Measured flits: 16510 16676 16909 16947 16957 16968 16974 16983 16989 16990 [...] (13 flits)
Class 0:
Remaining flits: 16510 16676 16909 16947 16957 16968 16974 16983 16989 16990 [...] (13 flits)
Measured flits: 16510 16676 16909 16947 16957 16968 16974 16983 16989 16990 [...] (13 flits)
Class 0:
Remaining flits: 16510 16676 16909 16947 16957 16968 16974 16983 16989 16990 [...] (13 flits)
Measured flits: 16510 16676 16909 16947 16957 16968 16974 16983 16989 16990 [...] (13 flits)
Class 0:
Remaining flits: 16510 16676 16909 16947 16957 16968 16974 16983 16989 16990 [...] (13 flits)
Measured flits: 16510 16676 16909 16947 16957 16968 16974 16983 16989 16990 [...] (13 flits)
Class 0:
Remaining flits: 16510 16676 16909 16947 16957 16968 16974 16983 16989 16990 [...] (13 flits)
Measured flits: 16510 16676 16909 16947 16957 16968 16974 16983 16989 16990 [...] (13 flits)
Class 0:
Remaining flits: 16510 16676 16909 16947 16957 16968 16974 16983 16989 16990 [...] (13 flits)
Measured flits: 16510 16676 16909 16947 16957 16968 16974 16983 16989 16990 [...] (13 flits)
Class 0:
Remaining flits: 16510 16676 16909 16947 16957 16968 16974 16983 16989 16990 [...] (13 flits)
Measured flits: 16510 16676 16909 16947 16957 16968 16974 16983 16989 16990 [...] (13 flits)
Class 0:
Remaining flits: 16510 16676 16909 16947 16957 16968 16974 16983 16989 16990 [...] (13 flits)
Measured flits: 16510 16676 16909 16947 16957 16968 16974 16983 16989 16990 [...] (13 flits)
Class 0:
Remaining flits: 16510 16676 16909 16947 16957 16968 16974 16983 16989 16990 [...] (13 flits)
Measured flits: 16510 16676 16909 16947 16957 16968 16974 16983 16989 16990 [...] (13 flits)
Class 0:
Remaining flits: 16510 16676 16909 16947 16957 16968 16974 16983 16989 16990 [...] (13 flits)
Measured flits: 16510 16676 16909 16947 16957 16968 16974 16983 16989 16990 [...] (13 flits)
Class 0:
Remaining flits: 16510 16676 16909 16947 16957 16968 16974 16983 16989 16990 [...] (13 flits)
Measured flits: 16510 16676 16909 16947 16957 16968 16974 16983 16989 16990 [...] (13 flits)
Class 0:
Remaining flits: 16510 16676 16909 16947 16957 16968 16974 16983 16989 16990 [...] (13 flits)
Measured flits: 16510 16676 16909 16947 16957 16968 16974 16983 16989 16990 [...] (13 flits)
Class 0:
Remaining flits: 16510 16676 16909 16947 16957 16968 16974 16983 16989 16990 [...] (13 flits)
Measured flits: 16510 16676 16909 16947 16957 16968 16974 16983 16989 16990 [...] (13 flits)
Class 0:
Remaining flits: 16510 16676 16909 16947 16957 16968 16974 16983 16989 16990 [...] (13 flits)
Measured flits: 16510 16676 16909 16947 16957 16968 16974 16983 16989 16990 [...] (13 flits)
Class 0:
Remaining flits: 16510 16676 16909 16947 16957 16968 16974 16983 16989 16990 [...] (13 flits)
Measured flits: 16510 16676 16909 16947 16957 16968 16974 16983 16989 16990 [...] (13 flits)
Class 0:
Remaining flits: 16510 16676 16909 16947 16957 16968 16974 16983 16989 16990 [...] (13 flits)
Measured flits: 16510 16676 16909 16947 16957 16968 16974 16983 16989 16990 [...] (13 flits)
Class 0:
Remaining flits: 16510 16676 16909 16947 16957 16968 16974 16983 16989 16990 [...] (13 flits)
Measured flits: 16510 16676 16909 16947 16957 16968 16974 16983 16989 16990 [...] (13 flits)
Class 0:
Remaining flits: 16510 16676 16909 16947 16957 16968 16974 16983 16989 16990 [...] (13 flits)
Measured flits: 16510 16676 16909 16947 16957 16968 16974 16983 16989 16990 [...] (13 flits)
Class 0:
Remaining flits: 16510 16676 16909 16947 16957 16968 16974 16983 16989 16990 [...] (13 flits)
Measured flits: 16510 16676 16909 16947 16957 16968 16974 16983 16989 16990 [...] (13 flits)
Class 0:
Remaining flits: 16510 16676 16909 16947 16957 16968 16974 16983 16989 16990 [...] (13 flits)
Measured flits: 16510 16676 16909 16947 16957 16968 16974 16983 16989 16990 [...] (13 flits)
Class 0:
Remaining flits: 16510 16676 16909 16947 16957 16968 16974 16983 16989 16990 [...] (13 flits)
Measured flits: 16510 16676 16909 16947 16957 16968 16974 16983 16989 16990 [...] (13 flits)
Class 0:
Remaining flits: 16510 16676 16909 16947 16957 16968 16974 16983 16989 16990 [...] (13 flits)
Measured flits: 16510 16676 16909 16947 16957 16968 16974 16983 16989 16990 [...] (13 flits)
Class 0:
Remaining flits: 16510 16676 16909 16947 16957 16968 16974 16983 16989 16990 [...] (13 flits)
Measured flits: 16510 16676 16909 16947 16957 16968 16974 16983 16989 16990 [...] (13 flits)
Class 0:
Remaining flits: 16510 16676 16909 16947 16957 16968 16974 16983 16989 16990 [...] (13 flits)
Measured flits: 16510 16676 16909 16947 16957 16968 16974 16983 16989 16990 [...] (13 flits)
Class 0:
Remaining flits: 16510 16676 16909 16947 16957 16968 16974 16983 16989 16990 [...] (13 flits)
Measured flits: 16510 16676 16909 16947 16957 16968 16974 16983 16989 16990 [...] (13 flits)
Class 0:
Remaining flits: 16510 16676 16909 16947 16957 16968 16974 16983 16989 16990 [...] (13 flits)
Measured flits: 16510 16676 16909 16947 16957 16968 16974 16983 16989 16990 [...] (13 flits)
Class 0:
Remaining flits: 16510 16676 16909 16947 16957 16968 16974 16983 16989 16990 [...] (13 flits)
Measured flits: 16510 16676 16909 16947 16957 16968 16974 16983 16989 16990 [...] (13 flits)
Class 0:
Remaining flits: 16510 16676 16909 16947 16957 16968 16974 16983 16989 16990 [...] (13 flits)
Measured flits: 16510 16676 16909 16947 16957 16968 16974 16983 16989 16990 [...] (13 flits)
Class 0:
Remaining flits: 16510 16676 16909 16947 16957 16968 16974 16983 16989 16990 [...] (13 flits)
Measured flits: 16510 16676 16909 16947 16957 16968 16974 16983 16989 16990 [...] (13 flits)
Class 0:
Remaining flits: 16510 16676 16909 16947 16957 16968 16974 16983 16989 16990 [...] (13 flits)
Measured flits: 16510 16676 16909 16947 16957 16968 16974 16983 16989 16990 [...] (13 flits)
Class 0:
Remaining flits: 16510 16676 16909 16947 16957 16968 16974 16983 16989 16990 [...] (13 flits)
Measured flits: 16510 16676 16909 16947 16957 16968 16974 16983 16989 16990 [...] (13 flits)
Class 0:
Remaining flits: 16510 16676 16909 16947 16957 16968 16974 16983 16989 16990 [...] (13 flits)
Measured flits: 16510 16676 16909 16947 16957 16968 16974 16983 16989 16990 [...] (13 flits)
Class 0:
Remaining flits: 16510 16676 16909 16947 16957 16968 16974 16983 16989 16990 [...] (13 flits)
Measured flits: 16510 16676 16909 16947 16957 16968 16974 16983 16989 16990 [...] (13 flits)
Class 0:
Remaining flits: 16510 16676 16909 16947 16957 16968 16974 16983 16989 16990 [...] (13 flits)
Measured flits: 16510 16676 16909 16947 16957 16968 16974 16983 16989 16990 [...] (13 flits)
Class 0:
Remaining flits: 16510 16676 16909 16947 16957 16968 16974 16983 16989 16990 [...] (13 flits)
Measured flits: 16510 16676 16909 16947 16957 16968 16974 16983 16989 16990 [...] (13 flits)
Class 0:
Remaining flits: 16510 16676 16909 16947 16957 16968 16974 16983 16989 16990 [...] (13 flits)
Measured flits: 16510 16676 16909 16947 16957 16968 16974 16983 16989 16990 [...] (13 flits)
Class 0:
Remaining flits: 16510 16676 16909 16947 16957 16968 16974 16983 16989 16990 [...] (13 flits)
Measured flits: 16510 16676 16909 16947 16957 16968 16974 16983 16989 16990 [...] (13 flits)
Class 0:
Remaining flits: 16510 16676 16909 16947 16957 16968 16974 16983 16989 16990 [...] (13 flits)
Measured flits: 16510 16676 16909 16947 16957 16968 16974 16983 16989 16990 [...] (13 flits)
Class 0:
Remaining flits: 16510 16676 16909 16947 16957 16968 16974 16983 16989 16990 [...] (13 flits)
Measured flits: 16510 16676 16909 16947 16957 16968 16974 16983 16989 16990 [...] (13 flits)
Class 0:
Remaining flits: 16510 16676 16909 16947 16957 16968 16974 16983 16989 16990 [...] (13 flits)
Measured flits: 16510 16676 16909 16947 16957 16968 16974 16983 16989 16990 [...] (13 flits)
Class 0:
Remaining flits: 16510 16676 16909 16947 16957 16968 16974 16983 16989 16990 [...] (13 flits)
Measured flits: 16510 16676 16909 16947 16957 16968 16974 16983 16989 16990 [...] (13 flits)
Class 0:
Remaining flits: 16510 16676 16909 16947 16957 16968 16974 16983 16989 16990 [...] (13 flits)
Measured flits: 16510 16676 16909 16947 16957 16968 16974 16983 16989 16990 [...] (13 flits)
Class 0:
Remaining flits: 16510 16676 16909 16947 16957 16968 16974 16983 16989 16990 [...] (13 flits)
Measured flits: 16510 16676 16909 16947 16957 16968 16974 16983 16989 16990 [...] (13 flits)
Class 0:
Remaining flits: 16510 16676 16909 16947 16957 16968 16974 16983 16989 16990 [...] (13 flits)
Measured flits: 16510 16676 16909 16947 16957 16968 16974 16983 16989 16990 [...] (13 flits)
Class 0:
Remaining flits: 16510 16676 16909 16947 16957 16968 16974 16983 16989 16990 [...] (13 flits)
Measured flits: 16510 16676 16909 16947 16957 16968 16974 16983 16989 16990 [...] (13 flits)
Class 0:
Remaining flits: 16510 16676 16909 16947 16957 16968 16974 16983 16989 16990 [...] (13 flits)
Measured flits: 16510 16676 16909 16947 16957 16968 16974 16983 16989 16990 [...] (13 flits)
Class 0:
Remaining flits: 16510 16676 16909 16947 16957 16968 16974 16983 16989 16990 [...] (13 flits)
Measured flits: 16510 16676 16909 16947 16957 16968 16974 16983 16989 16990 [...] (13 flits)
Class 0:
Remaining flits: 16510 16676 16909 16947 16957 16968 16974 16983 16989 16990 [...] (13 flits)
Measured flits: 16510 16676 16909 16947 16957 16968 16974 16983 16989 16990 [...] (13 flits)
Class 0:
Remaining flits: 16510 16676 16909 16947 16957 16968 16974 16983 16989 16990 [...] (13 flits)
Measured flits: 16510 16676 16909 16947 16957 16968 16974 16983 16989 16990 [...] (13 flits)
Class 0:
Remaining flits: 16510 16676 16909 16947 16957 16968 16974 16983 16989 16990 [...] (13 flits)
Measured flits: 16510 16676 16909 16947 16957 16968 16974 16983 16989 16990 [...] (13 flits)
Class 0:
Remaining flits: 16510 16676 16909 16947 16957 16968 16974 16983 16989 16990 [...] (13 flits)
Measured flits: 16510 16676 16909 16947 16957 16968 16974 16983 16989 16990 [...] (13 flits)
Class 0:
Remaining flits: 16510 16676 16909 16947 16957 16968 16974 16983 16989 16990 [...] (13 flits)
Measured flits: 16510 16676 16909 16947 16957 16968 16974 16983 16989 16990 [...] (13 flits)
Class 0:
Remaining flits: 16510 16676 16909 16947 16957 16968 16974 16983 16989 16990 [...] (13 flits)
Measured flits: 16510 16676 16909 16947 16957 16968 16974 16983 16989 16990 [...] (13 flits)
Class 0:
Remaining flits: 16510 16676 16909 16947 16957 16968 16974 16983 16989 16990 [...] (13 flits)
Measured flits: 16510 16676 16909 16947 16957 16968 16974 16983 16989 16990 [...] (13 flits)
Class 0:
Remaining flits: 16510 16676 16909 16947 16957 16968 16974 16983 16989 16990 [...] (13 flits)
Measured flits: 16510 16676 16909 16947 16957 16968 16974 16983 16989 16990 [...] (13 flits)
Class 0:
Remaining flits: 16510 16676 16909 16947 16957 16968 16974 16983 16989 16990 [...] (13 flits)
Measured flits: 16510 16676 16909 16947 16957 16968 16974 16983 16989 16990 [...] (13 flits)
Class 0:
Remaining flits: 16510 16676 16909 16947 16957 16968 16974 16983 16989 16990 [...] (13 flits)
Measured flits: 16510 16676 16909 16947 16957 16968 16974 16983 16989 16990 [...] (13 flits)
Class 0:
Remaining flits: 16510 16676 16909 16947 16957 16968 16974 16983 16989 16990 [...] (13 flits)
Measured flits: 16510 16676 16909 16947 16957 16968 16974 16983 16989 16990 [...] (13 flits)
Class 0:
Remaining flits: 16510 16676 16909 16947 16957 16968 16974 16983 16989 16990 [...] (13 flits)
Measured flits: 16510 16676 16909 16947 16957 16968 16974 16983 16989 16990 [...] (13 flits)
Class 0:
Remaining flits: 16510 16676 16909 16947 16957 16968 16974 16983 16989 16990 [...] (13 flits)
Measured flits: 16510 16676 16909 16947 16957 16968 16974 16983 16989 16990 [...] (13 flits)
Class 0:
Remaining flits: 16510 16676 16909 16947 16957 16968 16974 16983 16989 16990 [...] (13 flits)
Measured flits: 16510 16676 16909 16947 16957 16968 16974 16983 16989 16990 [...] (13 flits)
Class 0:
Remaining flits: 16510 16676 16909 16947 16957 16968 16974 16983 16989 16990 [...] (13 flits)
Measured flits: 16510 16676 16909 16947 16957 16968 16974 16983 16989 16990 [...] (13 flits)
Class 0:
Remaining flits: 16510 16676 16909 16947 16957 16968 16974 16983 16989 16990 [...] (13 flits)
Measured flits: 16510 16676 16909 16947 16957 16968 16974 16983 16989 16990 [...] (13 flits)
Class 0:
Remaining flits: 16510 16676 16909 16947 16957 16968 16974 16983 16989 16990 [...] (13 flits)
Measured flits: 16510 16676 16909 16947 16957 16968 16974 16983 16989 16990 [...] (13 flits)
Class 0:
Remaining flits: 16510 16676 16909 16947 16957 16968 16974 16983 16989 16990 [...] (13 flits)
Measured flits: 16510 16676 16909 16947 16957 16968 16974 16983 16989 16990 [...] (13 flits)
Class 0:
Remaining flits: 16510 16676 16909 16947 16957 16968 16974 16983 16989 16990 [...] (13 flits)
Measured flits: 16510 16676 16909 16947 16957 16968 16974 16983 16989 16990 [...] (13 flits)
Time taken is 7000 cycles
====== Traffic class 0 ======

Total number of flits generated = 17002, changed lanes = 16497
Overall minimum packet latency = 7 (1 samples)
Overall average packet latency = 285.542 (1 samples)
Overall maximum packet latency = 1063 (1 samples)
Overall minimum network latency = 8 (1 samples)
Overall average network latency = 74.6549 (1 samples)
Overall maximum network latency = 177 (1 samples)
Overall minimum flit latency = 8 (1 samples)
Overall average flit latency = 75.4531 (1 samples)
Overall maximum flit latency = 177 (1 samples)
Overall minimum fragmentation = 0 (1 samples)
Overall average fragmentation = 0 (1 samples)
Overall maximum fragmentation = 0 (1 samples)
Overall minimum injected packet rate = 0.166333 (1 samples)
Overall average injected packet rate = 0.177187 (1 samples)
Overall maximum injected packet rate = 0.193667 (1 samples)
Overall minimum accepted packet rate = 0.152 (1 samples)
Overall average accepted packet rate = 0.177042 (1 samples)
Overall maximum accepted packet rate = 0.187333 (1 samples)
Overall minimum injected flit rate = 0.166333 (1 samples)
Overall average injected flit rate = 0.177187 (1 samples)
Overall maximum injected flit rate = 0.193667 (1 samples)
Overall minimum accepted flit rate = 0.152 (1 samples)
Overall average accepted flit rate = 0.177042 (1 samples)
Overall maximum accepted flit rate = 0.187333 (1 samples)
Overall average injected packet size = 1 (1 samples)
Overall average accepted packet size = 1 (1 samples)
Overall average hops = 2.99105 (1 samples)
Overall throughput of the network (flits/cycle) = 5.663
Overall throughput of the network (packets/cycle) = 5.663
Total run time 2884.77
