make: Nothing to be done for 'all'.
Master: Running timer....
Master: Running SRC....
BEGIN Configuration File: ./examples/bitrev
// Topology

topology = torus;
k = 4;
n = 2;

// Routing
routing_function = dim_order;

// Flow control
num_vcs     = 4;
vc_buf_size = 4;
wait_for_tail_credit = 0;

// Router architecture
vc_allocator = islip;
sw_allocator = islip;
alloc_iters  = 1;

credit_delay   = 1;
routing_delay  = 1;
vc_alloc_delay = 1;
sw_alloc_delay = 1;

input_speedup     = 1;
output_speedup    = 1;
internal_speedup  = 1.0;

vc_busy_when_full = 0;

// Traffic
traffic = uniform;
packet_size = 1;

// Simulation
sim_type = throughput;

injection_rate = 0.31;

END Configuration File: ./examples/bitrev
===== Time: 1000 =====
Class 0:
Minimum packet latency = 7
Average packet latency = 127.328
Maximum packet latency = 565
Minimum network latency = 8
Average network latency = 79.1306
Maximum network latency = 210
Slowest packet = 386
Minimum flit latency = 8
Average flit latency = 79.1306
Maximum flit latency = 210
Slowest flit = 1205
Minimum fragmentation = 0
Average fragmentation = 0
Maximum fragmentation = 0
Minimum injected packet rate = 0.181 (at node 14)
Average injected packet rate = 0.24225
Maximum injected packet rate = 0.317 (at node 5)
Minimum accepted packet rate = 0.191 (at node 4)
Average accepted packet rate = 0.219688
Maximum accepted packet rate = 0.238 (at node 6)
Minimum injected flit rate = 0.181 (at node 14)
Average injected flit rate = 0.24225
Maximum injected flit rate = 0.317 (at node 5)
Minimum accepted flit rate = 0.191 (at node 4)
Average accepted flit rate = 0.219688
Maximum accepted flit rate = 0.238 (at node 6)
Total number of injected packets = 3876
Total number of injected flits = 3876
Average injected packet length = 1
Total number of accepted packets = 3515
Total number of accepted flits = 3515
Average accepted packet length = 1
Total in-flight flits = 368 (0 measured)
===== Time: 2000 =====
Class 0:
Minimum packet latency = 7
Average packet latency = 220.877
Maximum packet latency = 1053
Minimum network latency = 8
Average network latency = 86.5874
Maximum network latency = 225
Slowest packet = 386
Minimum flit latency = 8
Average flit latency = 86.5874
Maximum flit latency = 225
Slowest flit = 3048
Minimum fragmentation = 0
Average fragmentation = 0
Maximum fragmentation = 0
Minimum injected packet rate = 0.1735 (at node 12)
Average injected packet rate = 0.239187
Maximum injected packet rate = 0.326 (at node 5)
Minimum accepted packet rate = 0.202 (at node 4)
Average accepted packet rate = 0.228594
Maximum accepted packet rate = 0.2485 (at node 7)
Minimum injected flit rate = 0.1735 (at node 12)
Average injected flit rate = 0.239187
Maximum injected flit rate = 0.326 (at node 5)
Minimum accepted flit rate = 0.202 (at node 4)
Average accepted flit rate = 0.228594
Maximum accepted flit rate = 0.2485 (at node 7)
Total number of injected packets = 7654
Total number of injected flits = 7654
Average injected packet length = 1
Total number of accepted packets = 7315
Total number of accepted flits = 7315
Average accepted packet length = 1
Total in-flight flits = 349 (0 measured)
===== Time: 3000 =====
Class 0:
Minimum packet latency = 7
Average packet latency = 460.02
Maximum packet latency = 1513
Minimum network latency = 8
Average network latency = 84.338
Maximum network latency = 199
Slowest packet = 7128
Minimum flit latency = 8
Average flit latency = 84.338
Maximum flit latency = 199
Slowest flit = 7545
Minimum fragmentation = 0
Average fragmentation = 0
Maximum fragmentation = 0
Minimum injected packet rate = 0.165 (at node 12)
Average injected packet rate = 0.237313
Maximum injected packet rate = 0.324 (at node 0)
Minimum accepted packet rate = 0.212 (at node 5)
Average accepted packet rate = 0.238
Maximum accepted packet rate = 0.267 (at node 12)
Minimum injected flit rate = 0.165 (at node 12)
Average injected flit rate = 0.237313
Maximum injected flit rate = 0.324 (at node 0)
Minimum accepted flit rate = 0.212 (at node 5)
Average accepted flit rate = 0.238
Maximum accepted flit rate = 0.267 (at node 12)
Total number of injected packets = 3797
Total number of injected flits = 3797
Average injected packet length = 1
Total number of accepted packets = 3808
Total number of accepted flits = 3808
Average accepted packet length = 1
Total in-flight flits = 337 (0 measured)
===== Time: 4000 =====
Class 0:
Minimum packet latency = 7
Average packet latency = 618.444
Maximum packet latency = 2040
Minimum network latency = 8
Average network latency = 91.0779
Maximum network latency = 247
Slowest packet = 11474
Minimum flit latency = 8
Average flit latency = 92.5501
Maximum flit latency = 247
Slowest flit = 12577
Minimum fragmentation = 0
Average fragmentation = 0
Maximum fragmentation = 0
Minimum injected packet rate = 0.165 (at node 8)
Average injected packet rate = 0.236563
Maximum injected packet rate = 0.325 (at node 1)
Minimum accepted packet rate = 0.22 (at node 0)
Average accepted packet rate = 0.233687
Maximum accepted packet rate = 0.256 (at node 5)
Minimum injected flit rate = 0.165 (at node 8)
Average injected flit rate = 0.236563
Maximum injected flit rate = 0.325 (at node 1)
Minimum accepted flit rate = 0.22 (at node 0)
Average accepted flit rate = 0.233687
Maximum accepted flit rate = 0.256 (at node 5)
Total number of injected packets = 3785
Total number of injected flits = 3785
Average injected packet length = 1
Total number of accepted packets = 3739
Total number of accepted flits = 3739
Average accepted packet length = 1
Total in-flight flits = 386 (386 measured)
===== Time: 5000 =====
Class 0:
Minimum packet latency = 7
Average packet latency = 716.687
Maximum packet latency = 2563
Minimum network latency = 8
Average network latency = 93.2254
Maximum network latency = 247
Slowest packet = 11474
Minimum flit latency = 8
Average flit latency = 93.8596
Maximum flit latency = 247
Slowest flit = 12577
Minimum fragmentation = 0
Average fragmentation = 0
Maximum fragmentation = 0
Minimum injected packet rate = 0.166 (at node 8)
Average injected packet rate = 0.2365
Maximum injected packet rate = 0.319 (at node 5)
Minimum accepted packet rate = 0.2105 (at node 4)
Average accepted packet rate = 0.235563
Maximum accepted packet rate = 0.248 (at node 3)
Minimum injected flit rate = 0.166 (at node 8)
Average injected flit rate = 0.2365
Maximum injected flit rate = 0.319 (at node 5)
Minimum accepted flit rate = 0.2105 (at node 4)
Average accepted flit rate = 0.235563
Maximum accepted flit rate = 0.248 (at node 3)
Total number of injected packets = 7568
Total number of injected flits = 7568
Average injected packet length = 1
Total number of accepted packets = 7538
Total number of accepted flits = 7538
Average accepted packet length = 1
Total in-flight flits = 369 (369 measured)
===== Time: 6000 =====
Class 0:
Minimum packet latency = 7
Average packet latency = 804.407
Maximum packet latency = 3009
Minimum network latency = 8
Average network latency = 93.9643
Maximum network latency = 272
Slowest packet = 11474
Minimum flit latency = 8
Average flit latency = 94.3651
Maximum flit latency = 272
Slowest flit = 21723
Minimum fragmentation = 0
Average fragmentation = 0
Maximum fragmentation = 0
Minimum injected packet rate = 0.166333 (at node 8)
Average injected packet rate = 0.236375
Maximum injected packet rate = 0.326333 (at node 4)
Minimum accepted packet rate = 0.208667 (at node 4)
Average accepted packet rate = 0.235542
Maximum accepted packet rate = 0.247333 (at node 8)
Minimum injected flit rate = 0.166333 (at node 8)
Average injected flit rate = 0.236375
Maximum injected flit rate = 0.326333 (at node 4)
Minimum accepted flit rate = 0.208667 (at node 4)
Average accepted flit rate = 0.235542
Maximum accepted flit rate = 0.247333 (at node 8)
Total number of injected packets = 11346
Total number of injected flits = 11346
Average injected packet length = 1
Total number of accepted packets = 11306
Total number of accepted flits = 11306
Average accepted packet length = 1
Total in-flight flits = 377 (377 measured)
Draining remaining packets ...
Class 0:
Remaining flits: 22260 22276 22291 22292 22296 22313 22315 22323 22324 22340 [...] (332 flits)
Measured flits: 22260 22276 22291 22292 22296 22313 22315 22323 22324 22340 [...] (332 flits)
Class 0:
Remaining flits: 22292 22342 22346 22347 22355 22366 22370 22371 22372 22378 [...] (298 flits)
Measured flits: 22292 22342 22346 22347 22355 22366 22370 22371 22372 22378 [...] (298 flits)
Class 0:
Remaining flits: 22342 22355 22366 22383 22393 22399 22402 22410 22416 22419 [...] (263 flits)
Measured flits: 22342 22355 22366 22383 22393 22399 22402 22410 22416 22419 [...] (263 flits)
Class 0:
Remaining flits: 22402 22416 22419 22426 22427 22434 22447 22449 22458 22459 [...] (233 flits)
Measured flits: 22402 22416 22419 22426 22427 22434 22447 22449 22458 22459 [...] (233 flits)
Class 0:
Remaining flits: 22427 22434 22449 22459 22466 22478 22491 22492 22493 22498 [...] (194 flits)
Measured flits: 22427 22434 22449 22459 22466 22478 22491 22492 22493 22498 [...] (194 flits)
Class 0:
Remaining flits: 22427 22434 22449 22466 22478 22498 22510 22514 22522 22534 [...] (163 flits)
Measured flits: 22427 22434 22449 22466 22478 22498 22510 22514 22522 22534 [...] (163 flits)
Class 0:
Remaining flits: 22434 22498 22522 22534 22541 22545 22549 22556 22562 22565 [...] (137 flits)
Measured flits: 22434 22498 22522 22534 22541 22545 22549 22556 22562 22565 [...] (137 flits)
Class 0:
Remaining flits: 22522 22534 22541 22556 22562 22566 22571 22577 22589 22590 [...] (104 flits)
Measured flits: 22522 22534 22541 22556 22562 22566 22571 22577 22589 22590 [...] (104 flits)
Class 0:
Remaining flits: 22556 22562 22589 22600 22601 22603 22611 22615 22621 22628 [...] (76 flits)
Measured flits: 22556 22562 22589 22600 22601 22603 22611 22615 22621 22628 [...] (76 flits)
Class 0:
Remaining flits: 22600 22601 22611 22636 22644 22650 22656 22657 22673 22680 [...] (55 flits)
Measured flits: 22600 22601 22611 22636 22644 22650 22656 22657 22673 22680 [...] (55 flits)
Class 0:
Remaining flits: 22600 22636 22644 22650 22682 22709 22715 22727 22728 22729 [...] (35 flits)
Measured flits: 22600 22636 22644 22650 22682 22709 22715 22727 22728 22729 [...] (35 flits)
Class 0:
Remaining flits: 22600 22636 22644 22650 22715 22728 22739 22740 22741 22745 [...] (25 flits)
Measured flits: 22600 22636 22644 22650 22715 22728 22739 22740 22741 22745 [...] (25 flits)
Class 0:
Remaining flits: 22600 22636 22644 22650 22715 22745 22788 22792 22794 22796 [...] (13 flits)
Measured flits: 22600 22636 22644 22650 22715 22745 22788 22792 22794 22796 [...] (13 flits)
Class 0:
Remaining flits: 22600 22636 22644 22650 22788 22792 22794 22796 22801 22802 [...] (11 flits)
Measured flits: 22600 22636 22644 22650 22788 22792 22794 22796 22801 22802 [...] (11 flits)
Class 0:
Remaining flits: 22600 22636 22644 22650 22788 22792 22794 22796 22801 22802 [...] (11 flits)
Measured flits: 22600 22636 22644 22650 22788 22792 22794 22796 22801 22802 [...] (11 flits)
Class 0:
Remaining flits: 22600 22636 22644 22650 22788 22792 22794 22796 22801 22802 [...] (11 flits)
Measured flits: 22600 22636 22644 22650 22788 22792 22794 22796 22801 22802 [...] (11 flits)
Class 0:
Remaining flits: 22600 22636 22644 22650 22788 22792 22794 22796 22801 22802 [...] (11 flits)
Measured flits: 22600 22636 22644 22650 22788 22792 22794 22796 22801 22802 [...] (11 flits)
Class 0:
Remaining flits: 22600 22636 22644 22650 22788 22792 22794 22796 22801 22802 [...] (11 flits)
Measured flits: 22600 22636 22644 22650 22788 22792 22794 22796 22801 22802 [...] (11 flits)
Class 0:
Remaining flits: 22600 22636 22644 22650 22788 22792 22794 22796 22801 22802 [...] (11 flits)
Measured flits: 22600 22636 22644 22650 22788 22792 22794 22796 22801 22802 [...] (11 flits)
Class 0:
Remaining flits: 22600 22636 22644 22650 22788 22792 22794 22796 22801 22802 [...] (11 flits)
Measured flits: 22600 22636 22644 22650 22788 22792 22794 22796 22801 22802 [...] (11 flits)
Class 0:
Remaining flits: 22600 22636 22644 22650 22788 22792 22794 22796 22801 22802 [...] (11 flits)
Measured flits: 22600 22636 22644 22650 22788 22792 22794 22796 22801 22802 [...] (11 flits)
Class 0:
Remaining flits: 22600 22636 22644 22650 22788 22792 22794 22796 22801 22802 [...] (11 flits)
Measured flits: 22600 22636 22644 22650 22788 22792 22794 22796 22801 22802 [...] (11 flits)
Class 0:
Remaining flits: 22600 22636 22644 22650 22788 22792 22794 22796 22801 22802 [...] (11 flits)
Measured flits: 22600 22636 22644 22650 22788 22792 22794 22796 22801 22802 [...] (11 flits)
Class 0:
Remaining flits: 22600 22636 22644 22650 22788 22792 22794 22796 22801 22802 [...] (11 flits)
Measured flits: 22600 22636 22644 22650 22788 22792 22794 22796 22801 22802 [...] (11 flits)
Class 0:
Remaining flits: 22600 22636 22644 22650 22788 22792 22794 22796 22801 22802 [...] (11 flits)
Measured flits: 22600 22636 22644 22650 22788 22792 22794 22796 22801 22802 [...] (11 flits)
Class 0:
Remaining flits: 22600 22636 22644 22650 22788 22792 22794 22796 22801 22802 [...] (11 flits)
Measured flits: 22600 22636 22644 22650 22788 22792 22794 22796 22801 22802 [...] (11 flits)
Class 0:
Remaining flits: 22600 22636 22644 22650 22788 22792 22794 22796 22801 22802 [...] (11 flits)
Measured flits: 22600 22636 22644 22650 22788 22792 22794 22796 22801 22802 [...] (11 flits)
Class 0:
Remaining flits: 22600 22636 22644 22650 22788 22792 22794 22796 22801 22802 [...] (11 flits)
Measured flits: 22600 22636 22644 22650 22788 22792 22794 22796 22801 22802 [...] (11 flits)
Class 0:
Remaining flits: 22600 22636 22644 22650 22788 22792 22794 22796 22801 22802 [...] (11 flits)
Measured flits: 22600 22636 22644 22650 22788 22792 22794 22796 22801 22802 [...] (11 flits)
Class 0:
Remaining flits: 22600 22636 22644 22650 22788 22792 22794 22796 22801 22802 [...] (11 flits)
Measured flits: 22600 22636 22644 22650 22788 22792 22794 22796 22801 22802 [...] (11 flits)
Class 0:
Remaining flits: 22600 22636 22644 22650 22788 22792 22794 22796 22801 22802 [...] (11 flits)
Measured flits: 22600 22636 22644 22650 22788 22792 22794 22796 22801 22802 [...] (11 flits)
Class 0:
Remaining flits: 22600 22636 22644 22650 22788 22792 22794 22796 22801 22802 [...] (11 flits)
Measured flits: 22600 22636 22644 22650 22788 22792 22794 22796 22801 22802 [...] (11 flits)
Class 0:
Remaining flits: 22600 22636 22644 22650 22788 22792 22794 22796 22801 22802 [...] (11 flits)
Measured flits: 22600 22636 22644 22650 22788 22792 22794 22796 22801 22802 [...] (11 flits)
Class 0:
Remaining flits: 22600 22636 22644 22650 22788 22792 22794 22796 22801 22802 [...] (11 flits)
Measured flits: 22600 22636 22644 22650 22788 22792 22794 22796 22801 22802 [...] (11 flits)
Class 0:
Remaining flits: 22600 22636 22644 22650 22788 22792 22794 22796 22801 22802 [...] (11 flits)
Measured flits: 22600 22636 22644 22650 22788 22792 22794 22796 22801 22802 [...] (11 flits)
Class 0:
Remaining flits: 22600 22636 22644 22650 22788 22792 22794 22796 22801 22802 [...] (11 flits)
Measured flits: 22600 22636 22644 22650 22788 22792 22794 22796 22801 22802 [...] (11 flits)
Class 0:
Remaining flits: 22600 22636 22644 22650 22788 22792 22794 22796 22801 22802 [...] (11 flits)
Measured flits: 22600 22636 22644 22650 22788 22792 22794 22796 22801 22802 [...] (11 flits)
Class 0:
Remaining flits: 22600 22636 22644 22650 22788 22792 22794 22796 22801 22802 [...] (11 flits)
Measured flits: 22600 22636 22644 22650 22788 22792 22794 22796 22801 22802 [...] (11 flits)
Class 0:
Remaining flits: 22600 22636 22644 22650 22788 22792 22794 22796 22801 22802 [...] (11 flits)
Measured flits: 22600 22636 22644 22650 22788 22792 22794 22796 22801 22802 [...] (11 flits)
Class 0:
Remaining flits: 22600 22636 22644 22650 22788 22792 22794 22796 22801 22802 [...] (11 flits)
Measured flits: 22600 22636 22644 22650 22788 22792 22794 22796 22801 22802 [...] (11 flits)
Class 0:
Remaining flits: 22600 22636 22644 22650 22788 22792 22794 22796 22801 22802 [...] (11 flits)
Measured flits: 22600 22636 22644 22650 22788 22792 22794 22796 22801 22802 [...] (11 flits)
Class 0:
Remaining flits: 22600 22636 22644 22650 22788 22792 22794 22796 22801 22802 [...] (11 flits)
Measured flits: 22600 22636 22644 22650 22788 22792 22794 22796 22801 22802 [...] (11 flits)
Class 0:
Remaining flits: 22600 22636 22644 22650 22788 22792 22794 22796 22801 22802 [...] (11 flits)
Measured flits: 22600 22636 22644 22650 22788 22792 22794 22796 22801 22802 [...] (11 flits)
Class 0:
Remaining flits: 22600 22636 22644 22650 22788 22792 22794 22796 22801 22802 [...] (11 flits)
Measured flits: 22600 22636 22644 22650 22788 22792 22794 22796 22801 22802 [...] (11 flits)
Class 0:
Remaining flits: 22600 22636 22644 22650 22788 22792 22794 22796 22801 22802 [...] (11 flits)
Measured flits: 22600 22636 22644 22650 22788 22792 22794 22796 22801 22802 [...] (11 flits)
Class 0:
Remaining flits: 22600 22636 22644 22650 22788 22792 22794 22796 22801 22802 [...] (11 flits)
Measured flits: 22600 22636 22644 22650 22788 22792 22794 22796 22801 22802 [...] (11 flits)
Class 0:
Remaining flits: 22600 22636 22644 22650 22788 22792 22794 22796 22801 22802 [...] (11 flits)
Measured flits: 22600 22636 22644 22650 22788 22792 22794 22796 22801 22802 [...] (11 flits)
Class 0:
Remaining flits: 22600 22636 22644 22650 22788 22792 22794 22796 22801 22802 [...] (11 flits)
Measured flits: 22600 22636 22644 22650 22788 22792 22794 22796 22801 22802 [...] (11 flits)
Class 0:
Remaining flits: 22600 22636 22644 22650 22788 22792 22794 22796 22801 22802 [...] (11 flits)
Measured flits: 22600 22636 22644 22650 22788 22792 22794 22796 22801 22802 [...] (11 flits)
Class 0:
Remaining flits: 22600 22636 22644 22650 22788 22792 22794 22796 22801 22802 [...] (11 flits)
Measured flits: 22600 22636 22644 22650 22788 22792 22794 22796 22801 22802 [...] (11 flits)
Class 0:
Remaining flits: 22600 22636 22644 22650 22788 22792 22794 22796 22801 22802 [...] (11 flits)
Measured flits: 22600 22636 22644 22650 22788 22792 22794 22796 22801 22802 [...] (11 flits)
Class 0:
Remaining flits: 22600 22636 22644 22650 22788 22792 22794 22796 22801 22802 [...] (11 flits)
Measured flits: 22600 22636 22644 22650 22788 22792 22794 22796 22801 22802 [...] (11 flits)
Class 0:
Remaining flits: 22600 22636 22644 22650 22788 22792 22794 22796 22801 22802 [...] (11 flits)
Measured flits: 22600 22636 22644 22650 22788 22792 22794 22796 22801 22802 [...] (11 flits)
Class 0:
Remaining flits: 22600 22636 22644 22650 22788 22792 22794 22796 22801 22802 [...] (11 flits)
Measured flits: 22600 22636 22644 22650 22788 22792 22794 22796 22801 22802 [...] (11 flits)
Class 0:
Remaining flits: 22600 22636 22644 22650 22788 22792 22794 22796 22801 22802 [...] (11 flits)
Measured flits: 22600 22636 22644 22650 22788 22792 22794 22796 22801 22802 [...] (11 flits)
Class 0:
Remaining flits: 22600 22636 22644 22650 22788 22792 22794 22796 22801 22802 [...] (11 flits)
Measured flits: 22600 22636 22644 22650 22788 22792 22794 22796 22801 22802 [...] (11 flits)
Class 0:
Remaining flits: 22600 22636 22644 22650 22788 22792 22794 22796 22801 22802 [...] (11 flits)
Measured flits: 22600 22636 22644 22650 22788 22792 22794 22796 22801 22802 [...] (11 flits)
Class 0:
Remaining flits: 22600 22636 22644 22650 22788 22792 22794 22796 22801 22802 [...] (11 flits)
Measured flits: 22600 22636 22644 22650 22788 22792 22794 22796 22801 22802 [...] (11 flits)
Class 0:
Remaining flits: 22600 22636 22644 22650 22788 22792 22794 22796 22801 22802 [...] (11 flits)
Measured flits: 22600 22636 22644 22650 22788 22792 22794 22796 22801 22802 [...] (11 flits)
Class 0:
Remaining flits: 22600 22636 22644 22650 22788 22792 22794 22796 22801 22802 [...] (11 flits)
Measured flits: 22600 22636 22644 22650 22788 22792 22794 22796 22801 22802 [...] (11 flits)
Class 0:
Remaining flits: 22600 22636 22644 22650 22788 22792 22794 22796 22801 22802 [...] (11 flits)
Measured flits: 22600 22636 22644 22650 22788 22792 22794 22796 22801 22802 [...] (11 flits)
Class 0:
Remaining flits: 22600 22636 22644 22650 22788 22792 22794 22796 22801 22802 [...] (11 flits)
Measured flits: 22600 22636 22644 22650 22788 22792 22794 22796 22801 22802 [...] (11 flits)
Class 0:
Remaining flits: 22600 22636 22644 22650 22788 22792 22794 22796 22801 22802 [...] (11 flits)
Measured flits: 22600 22636 22644 22650 22788 22792 22794 22796 22801 22802 [...] (11 flits)
Class 0:
Remaining flits: 22600 22636 22644 22650 22788 22792 22794 22796 22801 22802 [...] (11 flits)
Measured flits: 22600 22636 22644 22650 22788 22792 22794 22796 22801 22802 [...] (11 flits)
Class 0:
Remaining flits: 22600 22636 22644 22650 22788 22792 22794 22796 22801 22802 [...] (11 flits)
Measured flits: 22600 22636 22644 22650 22788 22792 22794 22796 22801 22802 [...] (11 flits)
Class 0:
Remaining flits: 22600 22636 22644 22650 22788 22792 22794 22796 22801 22802 [...] (11 flits)
Measured flits: 22600 22636 22644 22650 22788 22792 22794 22796 22801 22802 [...] (11 flits)
Class 0:
Remaining flits: 22600 22636 22644 22650 22788 22792 22794 22796 22801 22802 [...] (11 flits)
Measured flits: 22600 22636 22644 22650 22788 22792 22794 22796 22801 22802 [...] (11 flits)
Class 0:
Remaining flits: 22600 22636 22644 22650 22788 22792 22794 22796 22801 22802 [...] (11 flits)
Measured flits: 22600 22636 22644 22650 22788 22792 22794 22796 22801 22802 [...] (11 flits)
Class 0:
Remaining flits: 22600 22636 22644 22650 22788 22792 22794 22796 22801 22802 [...] (11 flits)
Measured flits: 22600 22636 22644 22650 22788 22792 22794 22796 22801 22802 [...] (11 flits)
Class 0:
Remaining flits: 22600 22636 22644 22650 22788 22792 22794 22796 22801 22802 [...] (11 flits)
Measured flits: 22600 22636 22644 22650 22788 22792 22794 22796 22801 22802 [...] (11 flits)
Class 0:
Remaining flits: 22600 22636 22644 22650 22788 22792 22794 22796 22801 22802 [...] (11 flits)
Measured flits: 22600 22636 22644 22650 22788 22792 22794 22796 22801 22802 [...] (11 flits)
Class 0:
Remaining flits: 22600 22636 22644 22650 22788 22792 22794 22796 22801 22802 [...] (11 flits)
Measured flits: 22600 22636 22644 22650 22788 22792 22794 22796 22801 22802 [...] (11 flits)
Class 0:
Remaining flits: 22600 22636 22644 22650 22788 22792 22794 22796 22801 22802 [...] (11 flits)
Measured flits: 22600 22636 22644 22650 22788 22792 22794 22796 22801 22802 [...] (11 flits)
Class 0:
Remaining flits: 22600 22636 22644 22650 22788 22792 22794 22796 22801 22802 [...] (11 flits)
Measured flits: 22600 22636 22644 22650 22788 22792 22794 22796 22801 22802 [...] (11 flits)
Class 0:
Remaining flits: 22600 22636 22644 22650 22788 22792 22794 22796 22801 22802 [...] (11 flits)
Measured flits: 22600 22636 22644 22650 22788 22792 22794 22796 22801 22802 [...] (11 flits)
Class 0:
Remaining flits: 22600 22636 22644 22650 22788 22792 22794 22796 22801 22802 [...] (11 flits)
Measured flits: 22600 22636 22644 22650 22788 22792 22794 22796 22801 22802 [...] (11 flits)
Class 0:
Remaining flits: 22600 22636 22644 22650 22788 22792 22794 22796 22801 22802 [...] (11 flits)
Measured flits: 22600 22636 22644 22650 22788 22792 22794 22796 22801 22802 [...] (11 flits)
Class 0:
Remaining flits: 22600 22636 22644 22650 22788 22792 22794 22796 22801 22802 [...] (11 flits)
Measured flits: 22600 22636 22644 22650 22788 22792 22794 22796 22801 22802 [...] (11 flits)
Class 0:
Remaining flits: 22600 22636 22644 22650 22788 22792 22794 22796 22801 22802 [...] (11 flits)
Measured flits: 22600 22636 22644 22650 22788 22792 22794 22796 22801 22802 [...] (11 flits)
Class 0:
Remaining flits: 22600 22636 22644 22650 22788 22792 22794 22796 22801 22802 [...] (11 flits)
Measured flits: 22600 22636 22644 22650 22788 22792 22794 22796 22801 22802 [...] (11 flits)
Class 0:
Remaining flits: 22600 22636 22644 22650 22788 22792 22794 22796 22801 22802 [...] (11 flits)
Measured flits: 22600 22636 22644 22650 22788 22792 22794 22796 22801 22802 [...] (11 flits)
Class 0:
Remaining flits: 22600 22636 22644 22650 22788 22792 22794 22796 22801 22802 [...] (11 flits)
Measured flits: 22600 22636 22644 22650 22788 22792 22794 22796 22801 22802 [...] (11 flits)
Class 0:
Remaining flits: 22600 22636 22644 22650 22788 22792 22794 22796 22801 22802 [...] (11 flits)
Measured flits: 22600 22636 22644 22650 22788 22792 22794 22796 22801 22802 [...] (11 flits)
Class 0:
Remaining flits: 22600 22636 22644 22650 22788 22792 22794 22796 22801 22802 [...] (11 flits)
Measured flits: 22600 22636 22644 22650 22788 22792 22794 22796 22801 22802 [...] (11 flits)
Class 0:
Remaining flits: 22600 22636 22644 22650 22788 22792 22794 22796 22801 22802 [...] (11 flits)
Measured flits: 22600 22636 22644 22650 22788 22792 22794 22796 22801 22802 [...] (11 flits)
Class 0:
Remaining flits: 22600 22636 22644 22650 22788 22792 22794 22796 22801 22802 [...] (11 flits)
Measured flits: 22600 22636 22644 22650 22788 22792 22794 22796 22801 22802 [...] (11 flits)
Class 0:
Remaining flits: 22600 22636 22644 22650 22788 22792 22794 22796 22801 22802 [...] (11 flits)
Measured flits: 22600 22636 22644 22650 22788 22792 22794 22796 22801 22802 [...] (11 flits)
Class 0:
Remaining flits: 22600 22636 22644 22650 22788 22792 22794 22796 22801 22802 [...] (11 flits)
Measured flits: 22600 22636 22644 22650 22788 22792 22794 22796 22801 22802 [...] (11 flits)
Class 0:
Remaining flits: 22600 22636 22644 22650 22788 22792 22794 22796 22801 22802 [...] (11 flits)
Measured flits: 22600 22636 22644 22650 22788 22792 22794 22796 22801 22802 [...] (11 flits)
Class 0:
Remaining flits: 22600 22636 22644 22650 22788 22792 22794 22796 22801 22802 [...] (11 flits)
Measured flits: 22600 22636 22644 22650 22788 22792 22794 22796 22801 22802 [...] (11 flits)
Class 0:
Remaining flits: 22600 22636 22644 22650 22788 22792 22794 22796 22801 22802 [...] (11 flits)
Measured flits: 22600 22636 22644 22650 22788 22792 22794 22796 22801 22802 [...] (11 flits)
Class 0:
Remaining flits: 22600 22636 22644 22650 22788 22792 22794 22796 22801 22802 [...] (11 flits)
Measured flits: 22600 22636 22644 22650 22788 22792 22794 22796 22801 22802 [...] (11 flits)
Class 0:
Remaining flits: 22600 22636 22644 22650 22788 22792 22794 22796 22801 22802 [...] (11 flits)
Measured flits: 22600 22636 22644 22650 22788 22792 22794 22796 22801 22802 [...] (11 flits)
Class 0:
Remaining flits: 22600 22636 22644 22650 22788 22792 22794 22796 22801 22802 [...] (11 flits)
Measured flits: 22600 22636 22644 22650 22788 22792 22794 22796 22801 22802 [...] (11 flits)
Class 0:
Remaining flits: 22600 22636 22644 22650 22788 22792 22794 22796 22801 22802 [...] (11 flits)
Measured flits: 22600 22636 22644 22650 22788 22792 22794 22796 22801 22802 [...] (11 flits)
Class 0:
Remaining flits: 22600 22636 22644 22650 22788 22792 22794 22796 22801 22802 [...] (11 flits)
Measured flits: 22600 22636 22644 22650 22788 22792 22794 22796 22801 22802 [...] (11 flits)
Class 0:
Remaining flits: 22600 22636 22644 22650 22788 22792 22794 22796 22801 22802 [...] (11 flits)
Measured flits: 22600 22636 22644 22650 22788 22792 22794 22796 22801 22802 [...] (11 flits)
Class 0:
Remaining flits: 22600 22636 22644 22650 22788 22792 22794 22796 22801 22802 [...] (11 flits)
Measured flits: 22600 22636 22644 22650 22788 22792 22794 22796 22801 22802 [...] (11 flits)
Class 0:
Remaining flits: 22600 22636 22644 22650 22788 22792 22794 22796 22801 22802 [...] (11 flits)
Measured flits: 22600 22636 22644 22650 22788 22792 22794 22796 22801 22802 [...] (11 flits)
Class 0:
Remaining flits: 22600 22636 22644 22650 22788 22792 22794 22796 22801 22802 [...] (11 flits)
Measured flits: 22600 22636 22644 22650 22788 22792 22794 22796 22801 22802 [...] (11 flits)
Class 0:
Remaining flits: 22600 22636 22644 22650 22788 22792 22794 22796 22801 22802 [...] (11 flits)
Measured flits: 22600 22636 22644 22650 22788 22792 22794 22796 22801 22802 [...] (11 flits)
Time taken is 7000 cycles
====== Traffic class 0 ======

Total number of flits generated = 22806, changed lanes = 22296
Overall minimum packet latency = 7 (1 samples)
Overall average packet latency = 822.621 (1 samples)
Overall maximum packet latency = 3071 (1 samples)
Overall minimum network latency = 8 (1 samples)
Overall average network latency = 94.3578 (1 samples)
Overall maximum network latency = 272 (1 samples)
Overall minimum flit latency = 8 (1 samples)
Overall average flit latency = 94.7347 (1 samples)
Overall maximum flit latency = 272 (1 samples)
Overall minimum fragmentation = 0 (1 samples)
Overall average fragmentation = 0 (1 samples)
Overall maximum fragmentation = 0 (1 samples)
Overall minimum injected packet rate = 0.166333 (1 samples)
Overall average injected packet rate = 0.236375 (1 samples)
Overall maximum injected packet rate = 0.326333 (1 samples)
Overall minimum accepted packet rate = 0.208667 (1 samples)
Overall average accepted packet rate = 0.235542 (1 samples)
Overall maximum accepted packet rate = 0.247333 (1 samples)
Overall minimum injected flit rate = 0.166333 (1 samples)
Overall average injected flit rate = 0.236375 (1 samples)
Overall maximum injected flit rate = 0.326333 (1 samples)
Overall minimum accepted flit rate = 0.208667 (1 samples)
Overall average accepted flit rate = 0.235542 (1 samples)
Overall maximum accepted flit rate = 0.247333 (1 samples)
Overall average injected packet size = 1 (1 samples)
Overall average accepted packet size = 1 (1 samples)
Overall average hops = 2.9895 (1 samples)
Overall throughput of the network (flits/cycle) = 7.59833
Overall throughput of the network (packets/cycle) = 7.59833
Total run time 5665.38
