make: Nothing to be done for 'all'.
Master: Running timer....
Master: Running SRC....
BEGIN Configuration File: ./examples/bitrev
// Topology

topology = torus;
k = 4;
n = 2;

// Routing
routing_function = dim_order;

// Flow control
num_vcs     = 4;
vc_buf_size = 4;
wait_for_tail_credit = 0;

// Router architecture
vc_allocator = islip;
sw_allocator = islip;
alloc_iters  = 1;

credit_delay   = 1;
routing_delay  = 1;
vc_alloc_delay = 1;
sw_alloc_delay = 1;

input_speedup     = 1;
output_speedup    = 1;
internal_speedup  = 1.0;

vc_busy_when_full = 0;

// Traffic
traffic = uniform;
packet_size = 1;

// Simulation
sim_type = throughput;

injection_rate = 0.47;

END Configuration File: ./examples/bitrev
===== Time: 1000 =====
Class 0:
Minimum packet latency = 8
Average packet latency = 234.968
Maximum packet latency = 686
Minimum network latency = 9
Average network latency = 98.7607
Maximum network latency = 252
Slowest packet = 265
Minimum flit latency = 9
Average flit latency = 98.7607
Maximum flit latency = 252
Slowest flit = 2981
Minimum fragmentation = 0
Average fragmentation = 0
Maximum fragmentation = 0
Minimum injected packet rate = 0.181 (at node 10)
Average injected packet rate = 0.251937
Maximum injected packet rate = 0.337 (at node 0)
Minimum accepted packet rate = 0.206 (at node 4)
Average accepted packet rate = 0.22725
Maximum accepted packet rate = 0.247 (at node 15)
Minimum injected flit rate = 0.181 (at node 10)
Average injected flit rate = 0.251937
Maximum injected flit rate = 0.337 (at node 0)
Minimum accepted flit rate = 0.206 (at node 4)
Average accepted flit rate = 0.22725
Maximum accepted flit rate = 0.247 (at node 15)
Total number of injected packets = 4031
Total number of injected flits = 4031
Average injected packet length = 1
Total number of accepted packets = 3636
Total number of accepted flits = 3636
Average accepted packet length = 1
Total in-flight flits = 407 (0 measured)
===== Time: 2000 =====
Class 0:
Minimum packet latency = 8
Average packet latency = 463.127
Maximum packet latency = 1365
Minimum network latency = 9
Average network latency = 101.513
Maximum network latency = 252
Slowest packet = 265
Minimum flit latency = 9
Average flit latency = 101.513
Maximum flit latency = 252
Slowest flit = 2981
Minimum fragmentation = 0
Average fragmentation = 0
Maximum fragmentation = 0
Minimum injected packet rate = 0.1735 (at node 10)
Average injected packet rate = 0.246312
Maximum injected packet rate = 0.347 (at node 2)
Minimum accepted packet rate = 0.214 (at node 4)
Average accepted packet rate = 0.23425
Maximum accepted packet rate = 0.253 (at node 7)
Minimum injected flit rate = 0.1735 (at node 10)
Average injected flit rate = 0.246312
Maximum injected flit rate = 0.347 (at node 2)
Minimum accepted flit rate = 0.214 (at node 4)
Average accepted flit rate = 0.23425
Maximum accepted flit rate = 0.253 (at node 7)
Total number of injected packets = 7882
Total number of injected flits = 7882
Average injected packet length = 1
Total number of accepted packets = 7496
Total number of accepted flits = 7496
Average accepted packet length = 1
Total in-flight flits = 397 (0 measured)
===== Time: 3000 =====
Class 0:
Minimum packet latency = 578
Average packet latency = 1158.71
Maximum packet latency = 2003
Minimum network latency = 39
Average network latency = 107.636
Maximum network latency = 245
Slowest packet = 7576
Minimum flit latency = 39
Average flit latency = 107.636
Maximum flit latency = 245
Slowest flit = 8180
Minimum fragmentation = 0
Average fragmentation = 0
Maximum fragmentation = 0
Minimum injected packet rate = 0.166 (at node 9)
Average injected packet rate = 0.232125
Maximum injected packet rate = 0.352 (at node 7)
Minimum accepted packet rate = 0.201 (at node 14)
Average accepted packet rate = 0.23125
Maximum accepted packet rate = 0.265 (at node 9)
Minimum injected flit rate = 0.166 (at node 9)
Average injected flit rate = 0.232125
Maximum injected flit rate = 0.352 (at node 7)
Minimum accepted flit rate = 0.201 (at node 14)
Average accepted flit rate = 0.23125
Maximum accepted flit rate = 0.265 (at node 9)
Total number of injected packets = 3714
Total number of injected flits = 3714
Average injected packet length = 1
Total number of accepted packets = 3700
Total number of accepted flits = 3700
Average accepted packet length = 1
Total in-flight flits = 412 (0 measured)
===== Time: 4000 =====
Class 0:
Minimum packet latency = 863
Average packet latency = 1607.78
Maximum packet latency = 2636
Minimum network latency = 40
Average network latency = 103.075
Maximum network latency = 243
Slowest packet = 11612
Minimum flit latency = 40
Average flit latency = 105.249
Maximum flit latency = 264
Slowest flit = 11459
Minimum fragmentation = 0
Average fragmentation = 0
Maximum fragmentation = 0
Minimum injected packet rate = 0.166 (at node 8)
Average injected packet rate = 0.237937
Maximum injected packet rate = 0.348 (at node 6)
Minimum accepted packet rate = 0.226 (at node 11)
Average accepted packet rate = 0.238187
Maximum accepted packet rate = 0.249 (at node 2)
Minimum injected flit rate = 0.166 (at node 8)
Average injected flit rate = 0.237937
Maximum injected flit rate = 0.348 (at node 6)
Minimum accepted flit rate = 0.226 (at node 11)
Average accepted flit rate = 0.238187
Maximum accepted flit rate = 0.249 (at node 2)
Total number of injected packets = 3807
Total number of injected flits = 3807
Average injected packet length = 1
Total number of accepted packets = 3811
Total number of accepted flits = 3811
Average accepted packet length = 1
Total in-flight flits = 408 (408 measured)
===== Time: 5000 =====
Class 0:
Minimum packet latency = 863
Average packet latency = 1841.27
Maximum packet latency = 3308
Minimum network latency = 40
Average network latency = 105.552
Maximum network latency = 271
Slowest packet = 11612
Minimum flit latency = 40
Average flit latency = 106.521
Maximum flit latency = 271
Slowest flit = 15932
Minimum fragmentation = 0
Average fragmentation = 0
Maximum fragmentation = 0
Minimum injected packet rate = 0.164 (at node 11)
Average injected packet rate = 0.234187
Maximum injected packet rate = 0.3475 (at node 7)
Minimum accepted packet rate = 0.2015 (at node 4)
Average accepted packet rate = 0.234344
Maximum accepted packet rate = 0.2505 (at node 7)
Minimum injected flit rate = 0.164 (at node 11)
Average injected flit rate = 0.234187
Maximum injected flit rate = 0.3475 (at node 7)
Minimum accepted flit rate = 0.2015 (at node 4)
Average accepted flit rate = 0.234344
Maximum accepted flit rate = 0.2505 (at node 7)
Total number of injected packets = 7494
Total number of injected flits = 7494
Average injected packet length = 1
Total number of accepted packets = 7499
Total number of accepted flits = 7499
Average accepted packet length = 1
Total in-flight flits = 408 (408 measured)
===== Time: 6000 =====
Class 0:
Minimum packet latency = 863
Average packet latency = 2088.71
Maximum packet latency = 3989
Minimum network latency = 40
Average network latency = 106.841
Maximum network latency = 292
Slowest packet = 11612
Minimum flit latency = 40
Average flit latency = 107.449
Maximum flit latency = 292
Slowest flit = 19582
Minimum fragmentation = 0
Average fragmentation = 0
Maximum fragmentation = 0
Minimum injected packet rate = 0.165 (at node 11)
Average injected packet rate = 0.230542
Maximum injected packet rate = 0.319 (at node 7)
Minimum accepted packet rate = 0.206333 (at node 4)
Average accepted packet rate = 0.230625
Maximum accepted packet rate = 0.245667 (at node 7)
Minimum injected flit rate = 0.165 (at node 11)
Average injected flit rate = 0.230542
Maximum injected flit rate = 0.319 (at node 7)
Minimum accepted flit rate = 0.206333 (at node 4)
Average accepted flit rate = 0.230625
Maximum accepted flit rate = 0.245667 (at node 7)
Total number of injected packets = 11066
Total number of injected flits = 11066
Average injected packet length = 1
Total number of accepted packets = 11070
Total number of accepted flits = 11070
Average accepted packet length = 1
Total in-flight flits = 408 (408 measured)
Draining remaining packets ...
Class 0:
Remaining flits: 22068 22149 22151 22174 22175 22181 22187 22191 22200 22201 [...] (373 flits)
Measured flits: 22068 22149 22151 22174 22175 22181 22187 22191 22200 22201 [...] (373 flits)
Class 0:
Remaining flits: 22174 22187 22200 22204 22206 22214 22218 22220 22238 22239 [...] (329 flits)
Measured flits: 22174 22187 22200 22204 22206 22214 22218 22220 22238 22239 [...] (329 flits)
Class 0:
Remaining flits: 22204 22238 22239 22241 22254 22256 22258 22270 22271 22275 [...] (295 flits)
Measured flits: 22204 22238 22239 22241 22254 22256 22258 22270 22271 22275 [...] (295 flits)
Class 0:
Remaining flits: 22204 22238 22239 22241 22254 22256 22258 22271 22275 22276 [...] (255 flits)
Measured flits: 22204 22238 22239 22241 22254 22256 22258 22271 22275 22276 [...] (255 flits)
Class 0:
Remaining flits: 22204 22239 22241 22256 22275 22310 22313 22352 22357 22359 [...] (207 flits)
Measured flits: 22204 22239 22241 22256 22275 22310 22313 22352 22357 22359 [...] (207 flits)
Class 0:
Remaining flits: 22239 22256 22360 22362 22365 22377 22379 22383 22384 22386 [...] (171 flits)
Measured flits: 22239 22256 22360 22362 22365 22377 22379 22383 22384 22386 [...] (171 flits)
Class 0:
Remaining flits: 22362 22365 22377 22379 22383 22384 22386 22391 22402 22409 [...] (143 flits)
Measured flits: 22362 22365 22377 22379 22383 22384 22386 22391 22402 22409 [...] (143 flits)
Class 0:
Remaining flits: 22383 22384 22391 22402 22437 22449 22450 22456 22460 22485 [...] (111 flits)
Measured flits: 22383 22384 22391 22402 22437 22449 22450 22456 22460 22485 [...] (111 flits)
Class 0:
Remaining flits: 22384 22449 22450 22485 22487 22489 22490 22499 22505 22513 [...] (94 flits)
Measured flits: 22384 22449 22450 22485 22487 22489 22490 22499 22505 22513 [...] (94 flits)
Class 0:
Remaining flits: 22384 22487 22499 22505 22514 22518 22519 22522 22523 22526 [...] (70 flits)
Measured flits: 22384 22487 22499 22505 22514 22518 22519 22522 22523 22526 [...] (70 flits)
Class 0:
Remaining flits: 22499 22505 22518 22536 22546 22547 22576 22583 22596 22602 [...] (44 flits)
Measured flits: 22499 22505 22518 22536 22546 22547 22576 22583 22596 22602 [...] (44 flits)
Class 0:
Remaining flits: 22499 22546 22547 22583 22596 22609 22614 22619 22620 22623 [...] (35 flits)
Measured flits: 22499 22546 22547 22583 22596 22609 22614 22619 22620 22623 [...] (35 flits)
Class 0:
Remaining flits: 22547 22596 22614 22624 22631 22640 22651 22654 22656 22658 [...] (21 flits)
Measured flits: 22547 22596 22614 22624 22631 22640 22651 22654 22656 22658 [...] (21 flits)
Class 0:
Remaining flits: 22631 22651 22654 22656 22658 22659 22660 22661 22662 22664 [...] (14 flits)
Measured flits: 22631 22651 22654 22656 22658 22659 22660 22661 22662 22664 [...] (14 flits)
Class 0:
Remaining flits: 22631 22654 22656 22658 22659 22660 22661 22662 22664 22669 [...] (13 flits)
Measured flits: 22631 22654 22656 22658 22659 22660 22661 22662 22664 22669 [...] (13 flits)
Class 0:
Remaining flits: 22631 22654 22656 22658 22659 22660 22661 22662 22664 22669 [...] (13 flits)
Measured flits: 22631 22654 22656 22658 22659 22660 22661 22662 22664 22669 [...] (13 flits)
Class 0:
Remaining flits: 22631 22654 22656 22658 22659 22660 22661 22662 22664 22669 [...] (13 flits)
Measured flits: 22631 22654 22656 22658 22659 22660 22661 22662 22664 22669 [...] (13 flits)
Class 0:
Remaining flits: 22631 22654 22656 22658 22659 22660 22661 22662 22664 22669 [...] (13 flits)
Measured flits: 22631 22654 22656 22658 22659 22660 22661 22662 22664 22669 [...] (13 flits)
Class 0:
Remaining flits: 22631 22654 22656 22658 22659 22660 22661 22662 22664 22669 [...] (13 flits)
Measured flits: 22631 22654 22656 22658 22659 22660 22661 22662 22664 22669 [...] (13 flits)
Class 0:
Remaining flits: 22631 22654 22656 22658 22659 22660 22661 22662 22664 22669 [...] (13 flits)
Measured flits: 22631 22654 22656 22658 22659 22660 22661 22662 22664 22669 [...] (13 flits)
Class 0:
Remaining flits: 22631 22654 22656 22658 22659 22660 22661 22662 22664 22669 [...] (13 flits)
Measured flits: 22631 22654 22656 22658 22659 22660 22661 22662 22664 22669 [...] (13 flits)
Class 0:
Remaining flits: 22631 22654 22656 22658 22659 22660 22661 22662 22664 22669 [...] (13 flits)
Measured flits: 22631 22654 22656 22658 22659 22660 22661 22662 22664 22669 [...] (13 flits)
Class 0:
Remaining flits: 22631 22654 22656 22658 22659 22660 22661 22662 22664 22669 [...] (13 flits)
Measured flits: 22631 22654 22656 22658 22659 22660 22661 22662 22664 22669 [...] (13 flits)
Class 0:
Remaining flits: 22631 22654 22656 22658 22659 22660 22661 22662 22664 22669 [...] (13 flits)
Measured flits: 22631 22654 22656 22658 22659 22660 22661 22662 22664 22669 [...] (13 flits)
Class 0:
Remaining flits: 22631 22654 22656 22658 22659 22660 22661 22662 22664 22669 [...] (13 flits)
Measured flits: 22631 22654 22656 22658 22659 22660 22661 22662 22664 22669 [...] (13 flits)
Class 0:
Remaining flits: 22631 22654 22656 22658 22659 22660 22661 22662 22664 22669 [...] (13 flits)
Measured flits: 22631 22654 22656 22658 22659 22660 22661 22662 22664 22669 [...] (13 flits)
Class 0:
Remaining flits: 22631 22654 22656 22658 22659 22660 22661 22662 22664 22669 [...] (13 flits)
Measured flits: 22631 22654 22656 22658 22659 22660 22661 22662 22664 22669 [...] (13 flits)
Class 0:
Remaining flits: 22631 22654 22656 22658 22659 22660 22661 22662 22664 22669 [...] (13 flits)
Measured flits: 22631 22654 22656 22658 22659 22660 22661 22662 22664 22669 [...] (13 flits)
Class 0:
Remaining flits: 22631 22654 22656 22658 22659 22660 22661 22662 22664 22669 [...] (13 flits)
Measured flits: 22631 22654 22656 22658 22659 22660 22661 22662 22664 22669 [...] (13 flits)
Class 0:
Remaining flits: 22631 22654 22656 22658 22659 22660 22661 22662 22664 22669 [...] (13 flits)
Measured flits: 22631 22654 22656 22658 22659 22660 22661 22662 22664 22669 [...] (13 flits)
Class 0:
Remaining flits: 22631 22654 22656 22658 22659 22660 22661 22662 22664 22669 [...] (13 flits)
Measured flits: 22631 22654 22656 22658 22659 22660 22661 22662 22664 22669 [...] (13 flits)
Class 0:
Remaining flits: 22631 22654 22656 22658 22659 22660 22661 22662 22664 22669 [...] (13 flits)
Measured flits: 22631 22654 22656 22658 22659 22660 22661 22662 22664 22669 [...] (13 flits)
Class 0:
Remaining flits: 22631 22654 22656 22658 22659 22660 22661 22662 22664 22669 [...] (13 flits)
Measured flits: 22631 22654 22656 22658 22659 22660 22661 22662 22664 22669 [...] (13 flits)
Class 0:
Remaining flits: 22631 22654 22656 22658 22659 22660 22661 22662 22664 22669 [...] (13 flits)
Measured flits: 22631 22654 22656 22658 22659 22660 22661 22662 22664 22669 [...] (13 flits)
Class 0:
Remaining flits: 22631 22654 22656 22658 22659 22660 22661 22662 22664 22669 [...] (13 flits)
Measured flits: 22631 22654 22656 22658 22659 22660 22661 22662 22664 22669 [...] (13 flits)
Class 0:
Remaining flits: 22631 22654 22656 22658 22659 22660 22661 22662 22664 22669 [...] (13 flits)
Measured flits: 22631 22654 22656 22658 22659 22660 22661 22662 22664 22669 [...] (13 flits)
Class 0:
Remaining flits: 22631 22654 22656 22658 22659 22660 22661 22662 22664 22669 [...] (13 flits)
Measured flits: 22631 22654 22656 22658 22659 22660 22661 22662 22664 22669 [...] (13 flits)
Class 0:
Remaining flits: 22631 22654 22656 22658 22659 22660 22661 22662 22664 22669 [...] (13 flits)
Measured flits: 22631 22654 22656 22658 22659 22660 22661 22662 22664 22669 [...] (13 flits)
Class 0:
Remaining flits: 22631 22654 22656 22658 22659 22660 22661 22662 22664 22669 [...] (13 flits)
Measured flits: 22631 22654 22656 22658 22659 22660 22661 22662 22664 22669 [...] (13 flits)
Class 0:
Remaining flits: 22631 22654 22656 22658 22659 22660 22661 22662 22664 22669 [...] (13 flits)
Measured flits: 22631 22654 22656 22658 22659 22660 22661 22662 22664 22669 [...] (13 flits)
Class 0:
Remaining flits: 22631 22654 22656 22658 22659 22660 22661 22662 22664 22669 [...] (13 flits)
Measured flits: 22631 22654 22656 22658 22659 22660 22661 22662 22664 22669 [...] (13 flits)
Class 0:
Remaining flits: 22631 22654 22656 22658 22659 22660 22661 22662 22664 22669 [...] (13 flits)
Measured flits: 22631 22654 22656 22658 22659 22660 22661 22662 22664 22669 [...] (13 flits)
Class 0:
Remaining flits: 22631 22654 22656 22658 22659 22660 22661 22662 22664 22669 [...] (13 flits)
Measured flits: 22631 22654 22656 22658 22659 22660 22661 22662 22664 22669 [...] (13 flits)
Class 0:
Remaining flits: 22631 22654 22656 22658 22659 22660 22661 22662 22664 22669 [...] (13 flits)
Measured flits: 22631 22654 22656 22658 22659 22660 22661 22662 22664 22669 [...] (13 flits)
Class 0:
Remaining flits: 22631 22654 22656 22658 22659 22660 22661 22662 22664 22669 [...] (13 flits)
Measured flits: 22631 22654 22656 22658 22659 22660 22661 22662 22664 22669 [...] (13 flits)
Class 0:
Remaining flits: 22631 22654 22656 22658 22659 22660 22661 22662 22664 22669 [...] (13 flits)
Measured flits: 22631 22654 22656 22658 22659 22660 22661 22662 22664 22669 [...] (13 flits)
Class 0:
Remaining flits: 22631 22654 22656 22658 22659 22660 22661 22662 22664 22669 [...] (13 flits)
Measured flits: 22631 22654 22656 22658 22659 22660 22661 22662 22664 22669 [...] (13 flits)
Class 0:
Remaining flits: 22631 22654 22656 22658 22659 22660 22661 22662 22664 22669 [...] (13 flits)
Measured flits: 22631 22654 22656 22658 22659 22660 22661 22662 22664 22669 [...] (13 flits)
Class 0:
Remaining flits: 22631 22654 22656 22658 22659 22660 22661 22662 22664 22669 [...] (13 flits)
Measured flits: 22631 22654 22656 22658 22659 22660 22661 22662 22664 22669 [...] (13 flits)
Class 0:
Remaining flits: 22631 22654 22656 22658 22659 22660 22661 22662 22664 22669 [...] (13 flits)
Measured flits: 22631 22654 22656 22658 22659 22660 22661 22662 22664 22669 [...] (13 flits)
Class 0:
Remaining flits: 22631 22654 22656 22658 22659 22660 22661 22662 22664 22669 [...] (13 flits)
Measured flits: 22631 22654 22656 22658 22659 22660 22661 22662 22664 22669 [...] (13 flits)
Class 0:
Remaining flits: 22631 22654 22656 22658 22659 22660 22661 22662 22664 22669 [...] (13 flits)
Measured flits: 22631 22654 22656 22658 22659 22660 22661 22662 22664 22669 [...] (13 flits)
Class 0:
Remaining flits: 22631 22654 22656 22658 22659 22660 22661 22662 22664 22669 [...] (13 flits)
Measured flits: 22631 22654 22656 22658 22659 22660 22661 22662 22664 22669 [...] (13 flits)
Class 0:
Remaining flits: 22631 22654 22656 22658 22659 22660 22661 22662 22664 22669 [...] (13 flits)
Measured flits: 22631 22654 22656 22658 22659 22660 22661 22662 22664 22669 [...] (13 flits)
Class 0:
Remaining flits: 22631 22654 22656 22658 22659 22660 22661 22662 22664 22669 [...] (13 flits)
Measured flits: 22631 22654 22656 22658 22659 22660 22661 22662 22664 22669 [...] (13 flits)
Class 0:
Remaining flits: 22631 22654 22656 22658 22659 22660 22661 22662 22664 22669 [...] (13 flits)
Measured flits: 22631 22654 22656 22658 22659 22660 22661 22662 22664 22669 [...] (13 flits)
Class 0:
Remaining flits: 22631 22654 22656 22658 22659 22660 22661 22662 22664 22669 [...] (13 flits)
Measured flits: 22631 22654 22656 22658 22659 22660 22661 22662 22664 22669 [...] (13 flits)
Class 0:
Remaining flits: 22631 22654 22656 22658 22659 22660 22661 22662 22664 22669 [...] (13 flits)
Measured flits: 22631 22654 22656 22658 22659 22660 22661 22662 22664 22669 [...] (13 flits)
Class 0:
Remaining flits: 22631 22654 22656 22658 22659 22660 22661 22662 22664 22669 [...] (13 flits)
Measured flits: 22631 22654 22656 22658 22659 22660 22661 22662 22664 22669 [...] (13 flits)
Class 0:
Remaining flits: 22631 22654 22656 22658 22659 22660 22661 22662 22664 22669 [...] (13 flits)
Measured flits: 22631 22654 22656 22658 22659 22660 22661 22662 22664 22669 [...] (13 flits)
Class 0:
Remaining flits: 22631 22654 22656 22658 22659 22660 22661 22662 22664 22669 [...] (13 flits)
Measured flits: 22631 22654 22656 22658 22659 22660 22661 22662 22664 22669 [...] (13 flits)
Class 0:
Remaining flits: 22631 22654 22656 22658 22659 22660 22661 22662 22664 22669 [...] (13 flits)
Measured flits: 22631 22654 22656 22658 22659 22660 22661 22662 22664 22669 [...] (13 flits)
Class 0:
Remaining flits: 22631 22654 22656 22658 22659 22660 22661 22662 22664 22669 [...] (13 flits)
Measured flits: 22631 22654 22656 22658 22659 22660 22661 22662 22664 22669 [...] (13 flits)
Class 0:
Remaining flits: 22631 22654 22656 22658 22659 22660 22661 22662 22664 22669 [...] (13 flits)
Measured flits: 22631 22654 22656 22658 22659 22660 22661 22662 22664 22669 [...] (13 flits)
Class 0:
Remaining flits: 22631 22654 22656 22658 22659 22660 22661 22662 22664 22669 [...] (13 flits)
Measured flits: 22631 22654 22656 22658 22659 22660 22661 22662 22664 22669 [...] (13 flits)
Class 0:
Remaining flits: 22631 22654 22656 22658 22659 22660 22661 22662 22664 22669 [...] (13 flits)
Measured flits: 22631 22654 22656 22658 22659 22660 22661 22662 22664 22669 [...] (13 flits)
Class 0:
Remaining flits: 22631 22654 22656 22658 22659 22660 22661 22662 22664 22669 [...] (13 flits)
Measured flits: 22631 22654 22656 22658 22659 22660 22661 22662 22664 22669 [...] (13 flits)
Class 0:
Remaining flits: 22631 22654 22656 22658 22659 22660 22661 22662 22664 22669 [...] (13 flits)
Measured flits: 22631 22654 22656 22658 22659 22660 22661 22662 22664 22669 [...] (13 flits)
Class 0:
Remaining flits: 22631 22654 22656 22658 22659 22660 22661 22662 22664 22669 [...] (13 flits)
Measured flits: 22631 22654 22656 22658 22659 22660 22661 22662 22664 22669 [...] (13 flits)
Class 0:
Remaining flits: 22631 22654 22656 22658 22659 22660 22661 22662 22664 22669 [...] (13 flits)
Measured flits: 22631 22654 22656 22658 22659 22660 22661 22662 22664 22669 [...] (13 flits)
Class 0:
Remaining flits: 22631 22654 22656 22658 22659 22660 22661 22662 22664 22669 [...] (13 flits)
Measured flits: 22631 22654 22656 22658 22659 22660 22661 22662 22664 22669 [...] (13 flits)
Class 0:
Remaining flits: 22631 22654 22656 22658 22659 22660 22661 22662 22664 22669 [...] (13 flits)
Measured flits: 22631 22654 22656 22658 22659 22660 22661 22662 22664 22669 [...] (13 flits)
Class 0:
Remaining flits: 22631 22654 22656 22658 22659 22660 22661 22662 22664 22669 [...] (13 flits)
Measured flits: 22631 22654 22656 22658 22659 22660 22661 22662 22664 22669 [...] (13 flits)
Class 0:
Remaining flits: 22631 22654 22656 22658 22659 22660 22661 22662 22664 22669 [...] (13 flits)
Measured flits: 22631 22654 22656 22658 22659 22660 22661 22662 22664 22669 [...] (13 flits)
Class 0:
Remaining flits: 22631 22654 22656 22658 22659 22660 22661 22662 22664 22669 [...] (13 flits)
Measured flits: 22631 22654 22656 22658 22659 22660 22661 22662 22664 22669 [...] (13 flits)
Class 0:
Remaining flits: 22631 22654 22656 22658 22659 22660 22661 22662 22664 22669 [...] (13 flits)
Measured flits: 22631 22654 22656 22658 22659 22660 22661 22662 22664 22669 [...] (13 flits)
Class 0:
Remaining flits: 22631 22654 22656 22658 22659 22660 22661 22662 22664 22669 [...] (13 flits)
Measured flits: 22631 22654 22656 22658 22659 22660 22661 22662 22664 22669 [...] (13 flits)
Class 0:
Remaining flits: 22631 22654 22656 22658 22659 22660 22661 22662 22664 22669 [...] (13 flits)
Measured flits: 22631 22654 22656 22658 22659 22660 22661 22662 22664 22669 [...] (13 flits)
Class 0:
Remaining flits: 22631 22654 22656 22658 22659 22660 22661 22662 22664 22669 [...] (13 flits)
Measured flits: 22631 22654 22656 22658 22659 22660 22661 22662 22664 22669 [...] (13 flits)
Class 0:
Remaining flits: 22631 22654 22656 22658 22659 22660 22661 22662 22664 22669 [...] (13 flits)
Measured flits: 22631 22654 22656 22658 22659 22660 22661 22662 22664 22669 [...] (13 flits)
Class 0:
Remaining flits: 22631 22654 22656 22658 22659 22660 22661 22662 22664 22669 [...] (13 flits)
Measured flits: 22631 22654 22656 22658 22659 22660 22661 22662 22664 22669 [...] (13 flits)
Class 0:
Remaining flits: 22631 22654 22656 22658 22659 22660 22661 22662 22664 22669 [...] (13 flits)
Measured flits: 22631 22654 22656 22658 22659 22660 22661 22662 22664 22669 [...] (13 flits)
Class 0:
Remaining flits: 22631 22654 22656 22658 22659 22660 22661 22662 22664 22669 [...] (13 flits)
Measured flits: 22631 22654 22656 22658 22659 22660 22661 22662 22664 22669 [...] (13 flits)
Class 0:
Remaining flits: 22631 22654 22656 22658 22659 22660 22661 22662 22664 22669 [...] (13 flits)
Measured flits: 22631 22654 22656 22658 22659 22660 22661 22662 22664 22669 [...] (13 flits)
Class 0:
Remaining flits: 22631 22654 22656 22658 22659 22660 22661 22662 22664 22669 [...] (13 flits)
Measured flits: 22631 22654 22656 22658 22659 22660 22661 22662 22664 22669 [...] (13 flits)
Class 0:
Remaining flits: 22631 22654 22656 22658 22659 22660 22661 22662 22664 22669 [...] (13 flits)
Measured flits: 22631 22654 22656 22658 22659 22660 22661 22662 22664 22669 [...] (13 flits)
Class 0:
Remaining flits: 22631 22654 22656 22658 22659 22660 22661 22662 22664 22669 [...] (13 flits)
Measured flits: 22631 22654 22656 22658 22659 22660 22661 22662 22664 22669 [...] (13 flits)
Class 0:
Remaining flits: 22631 22654 22656 22658 22659 22660 22661 22662 22664 22669 [...] (13 flits)
Measured flits: 22631 22654 22656 22658 22659 22660 22661 22662 22664 22669 [...] (13 flits)
Class 0:
Remaining flits: 22631 22654 22656 22658 22659 22660 22661 22662 22664 22669 [...] (13 flits)
Measured flits: 22631 22654 22656 22658 22659 22660 22661 22662 22664 22669 [...] (13 flits)
Class 0:
Remaining flits: 22631 22654 22656 22658 22659 22660 22661 22662 22664 22669 [...] (13 flits)
Measured flits: 22631 22654 22656 22658 22659 22660 22661 22662 22664 22669 [...] (13 flits)
Class 0:
Remaining flits: 22631 22654 22656 22658 22659 22660 22661 22662 22664 22669 [...] (13 flits)
Measured flits: 22631 22654 22656 22658 22659 22660 22661 22662 22664 22669 [...] (13 flits)
Class 0:
Remaining flits: 22631 22654 22656 22658 22659 22660 22661 22662 22664 22669 [...] (13 flits)
Measured flits: 22631 22654 22656 22658 22659 22660 22661 22662 22664 22669 [...] (13 flits)
Class 0:
Remaining flits: 22631 22654 22656 22658 22659 22660 22661 22662 22664 22669 [...] (13 flits)
Measured flits: 22631 22654 22656 22658 22659 22660 22661 22662 22664 22669 [...] (13 flits)
Class 0:
Remaining flits: 22631 22654 22656 22658 22659 22660 22661 22662 22664 22669 [...] (13 flits)
Measured flits: 22631 22654 22656 22658 22659 22660 22661 22662 22664 22669 [...] (13 flits)
Class 0:
Remaining flits: 22631 22654 22656 22658 22659 22660 22661 22662 22664 22669 [...] (13 flits)
Measured flits: 22631 22654 22656 22658 22659 22660 22661 22662 22664 22669 [...] (13 flits)
Class 0:
Remaining flits: 22631 22654 22656 22658 22659 22660 22661 22662 22664 22669 [...] (13 flits)
Measured flits: 22631 22654 22656 22658 22659 22660 22661 22662 22664 22669 [...] (13 flits)
Class 0:
Remaining flits: 22631 22654 22656 22658 22659 22660 22661 22662 22664 22669 [...] (13 flits)
Measured flits: 22631 22654 22656 22658 22659 22660 22661 22662 22664 22669 [...] (13 flits)
Class 0:
Remaining flits: 22631 22654 22656 22658 22659 22660 22661 22662 22664 22669 [...] (13 flits)
Measured flits: 22631 22654 22656 22658 22659 22660 22661 22662 22664 22669 [...] (13 flits)
Class 0:
Remaining flits: 22631 22654 22656 22658 22659 22660 22661 22662 22664 22669 [...] (13 flits)
Measured flits: 22631 22654 22656 22658 22659 22660 22661 22662 22664 22669 [...] (13 flits)
Class 0:
Remaining flits: 22631 22654 22656 22658 22659 22660 22661 22662 22664 22669 [...] (13 flits)
Measured flits: 22631 22654 22656 22658 22659 22660 22661 22662 22664 22669 [...] (13 flits)
Class 0:
Remaining flits: 22631 22654 22656 22658 22659 22660 22661 22662 22664 22669 [...] (13 flits)
Measured flits: 22631 22654 22656 22658 22659 22660 22661 22662 22664 22669 [...] (13 flits)
Time taken is 7000 cycles
====== Traffic class 0 ======

Total number of flits generated = 22674, changed lanes = 22236
Overall minimum packet latency = 863 (1 samples)
Overall average packet latency = 2119.88 (1 samples)
Overall maximum packet latency = 4068 (1 samples)
Overall minimum network latency = 40 (1 samples)
Overall average network latency = 107.163 (1 samples)
Overall maximum network latency = 292 (1 samples)
Overall minimum flit latency = 40 (1 samples)
Overall average flit latency = 107.739 (1 samples)
Overall maximum flit latency = 292 (1 samples)
Overall minimum fragmentation = 0 (1 samples)
Overall average fragmentation = 0 (1 samples)
Overall maximum fragmentation = 0 (1 samples)
Overall minimum injected packet rate = 0.165 (1 samples)
Overall average injected packet rate = 0.230542 (1 samples)
Overall maximum injected packet rate = 0.319 (1 samples)
Overall minimum accepted packet rate = 0.206333 (1 samples)
Overall average accepted packet rate = 0.230625 (1 samples)
Overall maximum accepted packet rate = 0.245667 (1 samples)
Overall minimum injected flit rate = 0.165 (1 samples)
Overall average injected flit rate = 0.230542 (1 samples)
Overall maximum injected flit rate = 0.319 (1 samples)
Overall minimum accepted flit rate = 0.206333 (1 samples)
Overall average accepted flit rate = 0.230625 (1 samples)
Overall maximum accepted flit rate = 0.245667 (1 samples)
Overall average injected packet size = 1 (1 samples)
Overall average accepted packet size = 1 (1 samples)
Overall average hops = 2.99439 (1 samples)
Overall throughput of the network (flits/cycle) = 7.55367
Overall throughput of the network (packets/cycle) = 7.55367
Total run time 9496.09
