make: Nothing to be done for 'all'.
Master: Running timer....
Master: Running SRC....
BEGIN Configuration File: ./examples/bitrev
// Topology

topology = torus;
k = 4;
n = 2;

// Routing
routing_function = dim_order;

// Flow control
num_vcs     = 4;
vc_buf_size = 4;
wait_for_tail_credit = 0;

// Router architecture
vc_allocator = islip;
sw_allocator = islip;
alloc_iters  = 1;

credit_delay   = 1;
routing_delay  = 1;
vc_alloc_delay = 1;
sw_alloc_delay = 1;

input_speedup     = 1;
output_speedup    = 1;
internal_speedup  = 1.0;

vc_busy_when_full = 0;

// Traffic
traffic = uniform;
packet_size = 1;

// Simulation
sim_type = throughput;

injection_rate = 0.39;

END Configuration File: ./examples/bitrev
===== Time: 1000 =====
Class 0:
Minimum packet latency = 8
Average packet latency = 187.227
Maximum packet latency = 619
Minimum network latency = 9
Average network latency = 94.488
Maximum network latency = 250
Slowest packet = 347
Minimum flit latency = 9
Average flit latency = 94.488
Maximum flit latency = 250
Slowest flit = 2673
Minimum fragmentation = 0
Average fragmentation = 0
Maximum fragmentation = 0
Minimum injected packet rate = 0.18 (at node 11)
Average injected packet rate = 0.25225
Maximum injected packet rate = 0.358 (at node 5)
Minimum accepted packet rate = 0.21 (at node 4)
Average accepted packet rate = 0.227313
Maximum accepted packet rate = 0.243 (at node 1)
Minimum injected flit rate = 0.18 (at node 11)
Average injected flit rate = 0.25225
Maximum injected flit rate = 0.358 (at node 5)
Minimum accepted flit rate = 0.21 (at node 4)
Average accepted flit rate = 0.227313
Maximum accepted flit rate = 0.243 (at node 1)
Total number of injected packets = 4036
Total number of injected flits = 4036
Average injected packet length = 1
Total number of accepted packets = 3637
Total number of accepted flits = 3637
Average accepted packet length = 1
Total in-flight flits = 414 (0 measured)
===== Time: 2000 =====
Class 0:
Minimum packet latency = 8
Average packet latency = 348.99
Maximum packet latency = 1224
Minimum network latency = 9
Average network latency = 99.0399
Maximum network latency = 250
Slowest packet = 347
Minimum flit latency = 9
Average flit latency = 99.0399
Maximum flit latency = 250
Slowest flit = 2673
Minimum fragmentation = 0
Average fragmentation = 0
Maximum fragmentation = 0
Minimum injected packet rate = 0.1735 (at node 11)
Average injected packet rate = 0.245531
Maximum injected packet rate = 0.365 (at node 5)
Minimum accepted packet rate = 0.2015 (at node 4)
Average accepted packet rate = 0.233594
Maximum accepted packet rate = 0.2625 (at node 7)
Minimum injected flit rate = 0.1735 (at node 11)
Average injected flit rate = 0.245531
Maximum injected flit rate = 0.365 (at node 5)
Minimum accepted flit rate = 0.2015 (at node 4)
Average accepted flit rate = 0.233594
Maximum accepted flit rate = 0.2625 (at node 7)
Total number of injected packets = 7857
Total number of injected flits = 7857
Average injected packet length = 1
Total number of accepted packets = 7475
Total number of accepted flits = 7475
Average accepted packet length = 1
Total in-flight flits = 395 (0 measured)
===== Time: 3000 =====
Class 0:
Minimum packet latency = 73
Average packet latency = 851.698
Maximum packet latency = 1797
Minimum network latency = 40
Average network latency = 108.068
Maximum network latency = 264
Slowest packet = 7450
Minimum flit latency = 40
Average flit latency = 108.068
Maximum flit latency = 264
Slowest flit = 9512
Minimum fragmentation = 0
Average fragmentation = 0
Maximum fragmentation = 0
Minimum injected packet rate = 0.166 (at node 8)
Average injected packet rate = 0.230813
Maximum injected packet rate = 0.35 (at node 5)
Minimum accepted packet rate = 0.206 (at node 13)
Average accepted packet rate = 0.229563
Maximum accepted packet rate = 0.256 (at node 11)
Minimum injected flit rate = 0.166 (at node 8)
Average injected flit rate = 0.230813
Maximum injected flit rate = 0.35 (at node 5)
Minimum accepted flit rate = 0.206 (at node 13)
Average accepted flit rate = 0.229563
Maximum accepted flit rate = 0.256 (at node 11)
Total number of injected packets = 3693
Total number of injected flits = 3693
Average injected packet length = 1
Total number of accepted packets = 3673
Total number of accepted flits = 3673
Average accepted packet length = 1
Total in-flight flits = 418 (0 measured)
===== Time: 4000 =====
Class 0:
Minimum packet latency = 206
Average packet latency = 1188.3
Maximum packet latency = 2397
Minimum network latency = 39
Average network latency = 104.772
Maximum network latency = 241
Slowest packet = 11587
Minimum flit latency = 39
Average flit latency = 106.33
Maximum flit latency = 241
Slowest flit = 11696
Minimum fragmentation = 0
Average fragmentation = 0
Maximum fragmentation = 0
Minimum injected packet rate = 0.166 (at node 8)
Average injected packet rate = 0.236313
Maximum injected packet rate = 0.352 (at node 2)
Minimum accepted packet rate = 0.203 (at node 13)
Average accepted packet rate = 0.23625
Maximum accepted packet rate = 0.257 (at node 5)
Minimum injected flit rate = 0.166 (at node 8)
Average injected flit rate = 0.236313
Maximum injected flit rate = 0.352 (at node 2)
Minimum accepted flit rate = 0.203 (at node 13)
Average accepted flit rate = 0.23625
Maximum accepted flit rate = 0.257 (at node 5)
Total number of injected packets = 3781
Total number of injected flits = 3781
Average injected packet length = 1
Total number of accepted packets = 3780
Total number of accepted flits = 3780
Average accepted packet length = 1
Total in-flight flits = 415 (415 measured)
===== Time: 5000 =====
Class 0:
Minimum packet latency = 206
Average packet latency = 1364.62
Maximum packet latency = 2982
Minimum network latency = 39
Average network latency = 104.43
Maximum network latency = 291
Slowest packet = 11587
Minimum flit latency = 39
Average flit latency = 105.224
Maximum flit latency = 291
Slowest flit = 15124
Minimum fragmentation = 0
Average fragmentation = 0
Maximum fragmentation = 0
Minimum injected packet rate = 0.166 (at node 8)
Average injected packet rate = 0.237875
Maximum injected packet rate = 0.3435 (at node 2)
Minimum accepted packet rate = 0.2125 (at node 13)
Average accepted packet rate = 0.237219
Maximum accepted packet rate = 0.252 (at node 8)
Minimum injected flit rate = 0.166 (at node 8)
Average injected flit rate = 0.237875
Maximum injected flit rate = 0.3435 (at node 2)
Minimum accepted flit rate = 0.2125 (at node 13)
Average accepted flit rate = 0.237219
Maximum accepted flit rate = 0.252 (at node 8)
Total number of injected packets = 7612
Total number of injected flits = 7612
Average injected packet length = 1
Total number of accepted packets = 7591
Total number of accepted flits = 7591
Average accepted packet length = 1
Total in-flight flits = 438 (438 measured)
===== Time: 6000 =====
Class 0:
Minimum packet latency = 206
Average packet latency = 1541.2
Maximum packet latency = 3586
Minimum network latency = 39
Average network latency = 105.483
Maximum network latency = 291
Slowest packet = 11587
Minimum flit latency = 39
Average flit latency = 105.978
Maximum flit latency = 291
Slowest flit = 15124
Minimum fragmentation = 0
Average fragmentation = 0
Maximum fragmentation = 0
Minimum injected packet rate = 0.166 (at node 8)
Average injected packet rate = 0.235542
Maximum injected packet rate = 0.338 (at node 5)
Minimum accepted packet rate = 0.217333 (at node 4)
Average accepted packet rate = 0.235354
Maximum accepted packet rate = 0.248667 (at node 8)
Minimum injected flit rate = 0.166 (at node 8)
Average injected flit rate = 0.235542
Maximum injected flit rate = 0.338 (at node 5)
Minimum accepted flit rate = 0.217333 (at node 4)
Average accepted flit rate = 0.235354
Maximum accepted flit rate = 0.248667 (at node 8)
Total number of injected packets = 11306
Total number of injected flits = 11306
Average injected packet length = 1
Total number of accepted packets = 11297
Total number of accepted flits = 11297
Average accepted packet length = 1
Total in-flight flits = 424 (424 measured)
Draining remaining packets ...
Class 0:
Remaining flits: 22054 22090 22109 22122 22140 22186 22192 22212 22223 22229 [...] (389 flits)
Measured flits: 22054 22090 22109 22122 22140 22186 22192 22212 22223 22229 [...] (389 flits)
Class 0:
Remaining flits: 22109 22122 22140 22186 22192 22212 22229 22237 22238 22252 [...] (351 flits)
Measured flits: 22109 22122 22140 22186 22192 22212 22229 22237 22238 22252 [...] (351 flits)
Class 0:
Remaining flits: 22122 22186 22192 22229 22237 22238 22252 22268 22270 22288 [...] (320 flits)
Measured flits: 22122 22186 22192 22229 22237 22238 22252 22268 22270 22288 [...] (320 flits)
Class 0:
Remaining flits: 22122 22192 22237 22238 22252 22268 22270 22288 22292 22311 [...] (284 flits)
Measured flits: 22122 22192 22237 22238 22252 22268 22270 22288 22292 22311 [...] (284 flits)
Class 0:
Remaining flits: 22122 22192 22238 22252 22268 22270 22292 22311 22353 22375 [...] (260 flits)
Measured flits: 22122 22192 22238 22252 22268 22270 22292 22311 22353 22375 [...] (260 flits)
Class 0:
Remaining flits: 22122 22252 22268 22270 22292 22311 22377 22383 22422 22424 [...] (217 flits)
Measured flits: 22122 22252 22268 22270 22292 22311 22377 22383 22422 22424 [...] (217 flits)
Class 0:
Remaining flits: 22122 22252 22268 22270 22292 22311 22377 22424 22429 22434 [...] (190 flits)
Measured flits: 22122 22252 22268 22270 22292 22311 22377 22424 22429 22434 [...] (190 flits)
Class 0:
Remaining flits: 22122 22252 22268 22292 22311 22377 22424 22429 22434 22436 [...] (158 flits)
Measured flits: 22122 22252 22268 22292 22311 22377 22424 22429 22434 22436 [...] (158 flits)
Class 0:
Remaining flits: 22252 22268 22292 22311 22377 22424 22429 22434 22436 22450 [...] (130 flits)
Measured flits: 22252 22268 22292 22311 22377 22424 22429 22434 22436 22450 [...] (130 flits)
Class 0:
Remaining flits: 22268 22292 22311 22377 22424 22429 22434 22436 22450 22457 [...] (103 flits)
Measured flits: 22268 22292 22311 22377 22424 22429 22434 22436 22450 22457 [...] (103 flits)
Class 0:
Remaining flits: 22268 22292 22311 22377 22424 22429 22434 22436 22457 22493 [...] (75 flits)
Measured flits: 22268 22292 22311 22377 22424 22429 22434 22436 22457 22493 [...] (75 flits)
Class 0:
Remaining flits: 22292 22311 22377 22429 22434 22436 22457 22493 22498 22517 [...] (56 flits)
Measured flits: 22292 22311 22377 22429 22434 22436 22457 22493 22498 22517 [...] (56 flits)
Class 0:
Remaining flits: 22292 22311 22377 22429 22434 22436 22457 22493 22517 22519 [...] (47 flits)
Measured flits: 22292 22311 22377 22429 22434 22436 22457 22493 22517 22519 [...] (47 flits)
Class 0:
Remaining flits: 22292 22429 22434 22436 22457 22517 22519 22535 22548 22602 [...] (38 flits)
Measured flits: 22292 22429 22434 22436 22457 22517 22519 22535 22548 22602 [...] (38 flits)
Class 0:
Remaining flits: 22292 22429 22434 22457 22519 22535 22548 22602 22651 22657 [...] (33 flits)
Measured flits: 22292 22429 22434 22457 22519 22535 22548 22602 22651 22657 [...] (33 flits)
Class 0:
Remaining flits: 22292 22434 22457 22519 22535 22602 22657 22663 22678 22690 [...] (28 flits)
Measured flits: 22292 22434 22457 22519 22535 22602 22657 22663 22678 22690 [...] (28 flits)
Class 0:
Remaining flits: 22434 22519 22535 22602 22657 22663 22690 22732 22824 22843 [...] (21 flits)
Measured flits: 22434 22519 22535 22602 22657 22663 22690 22732 22824 22843 [...] (21 flits)
Class 0:
Remaining flits: 22434 22519 22602 22657 22690 22824 22843 22854 22857 22858 [...] (16 flits)
Measured flits: 22434 22519 22602 22657 22690 22824 22843 22854 22857 22858 [...] (16 flits)
Class 0:
Remaining flits: 22519 22602 22657 22690 22824 22854 22857 22858 22859 22860 [...] (14 flits)
Measured flits: 22519 22602 22657 22690 22824 22854 22857 22858 22859 22860 [...] (14 flits)
Class 0:
Remaining flits: 22657 22690 22824 22854 22857 22858 22859 22860 22863 22864 [...] (12 flits)
Measured flits: 22657 22690 22824 22854 22857 22858 22859 22860 22863 22864 [...] (12 flits)
Class 0:
Remaining flits: 22824 22854 22857 22858 22859 22860 22863 22864 22865 22868 (10 flits)
Measured flits: 22824 22854 22857 22858 22859 22860 22863 22864 22865 22868 (10 flits)
Class 0:
Remaining flits: 22824 22854 22857 22858 22859 22860 22863 22864 22865 22868 (10 flits)
Measured flits: 22824 22854 22857 22858 22859 22860 22863 22864 22865 22868 (10 flits)
Class 0:
Remaining flits: 22824 22854 22857 22858 22859 22860 22863 22864 22865 22868 (10 flits)
Measured flits: 22824 22854 22857 22858 22859 22860 22863 22864 22865 22868 (10 flits)
Class 0:
Remaining flits: 22824 22854 22857 22858 22859 22860 22863 22864 22865 22868 (10 flits)
Measured flits: 22824 22854 22857 22858 22859 22860 22863 22864 22865 22868 (10 flits)
Class 0:
Remaining flits: 22824 22854 22857 22858 22859 22860 22863 22864 22865 22868 (10 flits)
Measured flits: 22824 22854 22857 22858 22859 22860 22863 22864 22865 22868 (10 flits)
Class 0:
Remaining flits: 22824 22854 22857 22858 22859 22860 22863 22864 22865 22868 (10 flits)
Measured flits: 22824 22854 22857 22858 22859 22860 22863 22864 22865 22868 (10 flits)
Class 0:
Remaining flits: 22824 22854 22857 22858 22859 22860 22863 22864 22865 22868 (10 flits)
Measured flits: 22824 22854 22857 22858 22859 22860 22863 22864 22865 22868 (10 flits)
Class 0:
Remaining flits: 22824 22854 22857 22858 22859 22860 22863 22864 22865 22868 (10 flits)
Measured flits: 22824 22854 22857 22858 22859 22860 22863 22864 22865 22868 (10 flits)
Class 0:
Remaining flits: 22824 22854 22857 22858 22859 22860 22863 22864 22865 22868 (10 flits)
Measured flits: 22824 22854 22857 22858 22859 22860 22863 22864 22865 22868 (10 flits)
Class 0:
Remaining flits: 22824 22854 22857 22858 22859 22860 22863 22864 22865 22868 (10 flits)
Measured flits: 22824 22854 22857 22858 22859 22860 22863 22864 22865 22868 (10 flits)
Class 0:
Remaining flits: 22824 22854 22857 22858 22859 22860 22863 22864 22865 22868 (10 flits)
Measured flits: 22824 22854 22857 22858 22859 22860 22863 22864 22865 22868 (10 flits)
Class 0:
Remaining flits: 22824 22854 22857 22858 22859 22860 22863 22864 22865 22868 (10 flits)
Measured flits: 22824 22854 22857 22858 22859 22860 22863 22864 22865 22868 (10 flits)
Class 0:
Remaining flits: 22824 22854 22857 22858 22859 22860 22863 22864 22865 22868 (10 flits)
Measured flits: 22824 22854 22857 22858 22859 22860 22863 22864 22865 22868 (10 flits)
Class 0:
Remaining flits: 22824 22854 22857 22858 22859 22860 22863 22864 22865 22868 (10 flits)
Measured flits: 22824 22854 22857 22858 22859 22860 22863 22864 22865 22868 (10 flits)
Class 0:
Remaining flits: 22824 22854 22857 22858 22859 22860 22863 22864 22865 22868 (10 flits)
Measured flits: 22824 22854 22857 22858 22859 22860 22863 22864 22865 22868 (10 flits)
Class 0:
Remaining flits: 22824 22854 22857 22858 22859 22860 22863 22864 22865 22868 (10 flits)
Measured flits: 22824 22854 22857 22858 22859 22860 22863 22864 22865 22868 (10 flits)
Class 0:
Remaining flits: 22824 22854 22857 22858 22859 22860 22863 22864 22865 22868 (10 flits)
Measured flits: 22824 22854 22857 22858 22859 22860 22863 22864 22865 22868 (10 flits)
Class 0:
Remaining flits: 22824 22854 22857 22858 22859 22860 22863 22864 22865 22868 (10 flits)
Measured flits: 22824 22854 22857 22858 22859 22860 22863 22864 22865 22868 (10 flits)
Class 0:
Remaining flits: 22824 22854 22857 22858 22859 22860 22863 22864 22865 22868 (10 flits)
Measured flits: 22824 22854 22857 22858 22859 22860 22863 22864 22865 22868 (10 flits)
Class 0:
Remaining flits: 22824 22854 22857 22858 22859 22860 22863 22864 22865 22868 (10 flits)
Measured flits: 22824 22854 22857 22858 22859 22860 22863 22864 22865 22868 (10 flits)
Class 0:
Remaining flits: 22824 22854 22857 22858 22859 22860 22863 22864 22865 22868 (10 flits)
Measured flits: 22824 22854 22857 22858 22859 22860 22863 22864 22865 22868 (10 flits)
Class 0:
Remaining flits: 22824 22854 22857 22858 22859 22860 22863 22864 22865 22868 (10 flits)
Measured flits: 22824 22854 22857 22858 22859 22860 22863 22864 22865 22868 (10 flits)
Class 0:
Remaining flits: 22824 22854 22857 22858 22859 22860 22863 22864 22865 22868 (10 flits)
Measured flits: 22824 22854 22857 22858 22859 22860 22863 22864 22865 22868 (10 flits)
Class 0:
Remaining flits: 22824 22854 22857 22858 22859 22860 22863 22864 22865 22868 (10 flits)
Measured flits: 22824 22854 22857 22858 22859 22860 22863 22864 22865 22868 (10 flits)
Class 0:
Remaining flits: 22824 22854 22857 22858 22859 22860 22863 22864 22865 22868 (10 flits)
Measured flits: 22824 22854 22857 22858 22859 22860 22863 22864 22865 22868 (10 flits)
Class 0:
Remaining flits: 22824 22854 22857 22858 22859 22860 22863 22864 22865 22868 (10 flits)
Measured flits: 22824 22854 22857 22858 22859 22860 22863 22864 22865 22868 (10 flits)
Class 0:
Remaining flits: 22824 22854 22857 22858 22859 22860 22863 22864 22865 22868 (10 flits)
Measured flits: 22824 22854 22857 22858 22859 22860 22863 22864 22865 22868 (10 flits)
Class 0:
Remaining flits: 22824 22854 22857 22858 22859 22860 22863 22864 22865 22868 (10 flits)
Measured flits: 22824 22854 22857 22858 22859 22860 22863 22864 22865 22868 (10 flits)
Class 0:
Remaining flits: 22824 22854 22857 22858 22859 22860 22863 22864 22865 22868 (10 flits)
Measured flits: 22824 22854 22857 22858 22859 22860 22863 22864 22865 22868 (10 flits)
Class 0:
Remaining flits: 22824 22854 22857 22858 22859 22860 22863 22864 22865 22868 (10 flits)
Measured flits: 22824 22854 22857 22858 22859 22860 22863 22864 22865 22868 (10 flits)
Class 0:
Remaining flits: 22824 22854 22857 22858 22859 22860 22863 22864 22865 22868 (10 flits)
Measured flits: 22824 22854 22857 22858 22859 22860 22863 22864 22865 22868 (10 flits)
Class 0:
Remaining flits: 22824 22854 22857 22858 22859 22860 22863 22864 22865 22868 (10 flits)
Measured flits: 22824 22854 22857 22858 22859 22860 22863 22864 22865 22868 (10 flits)
Class 0:
Remaining flits: 22824 22854 22857 22858 22859 22860 22863 22864 22865 22868 (10 flits)
Measured flits: 22824 22854 22857 22858 22859 22860 22863 22864 22865 22868 (10 flits)
Class 0:
Remaining flits: 22824 22854 22857 22858 22859 22860 22863 22864 22865 22868 (10 flits)
Measured flits: 22824 22854 22857 22858 22859 22860 22863 22864 22865 22868 (10 flits)
Class 0:
Remaining flits: 22824 22854 22857 22858 22859 22860 22863 22864 22865 22868 (10 flits)
Measured flits: 22824 22854 22857 22858 22859 22860 22863 22864 22865 22868 (10 flits)
Class 0:
Remaining flits: 22824 22854 22857 22858 22859 22860 22863 22864 22865 22868 (10 flits)
Measured flits: 22824 22854 22857 22858 22859 22860 22863 22864 22865 22868 (10 flits)
Class 0:
Remaining flits: 22824 22854 22857 22858 22859 22860 22863 22864 22865 22868 (10 flits)
Measured flits: 22824 22854 22857 22858 22859 22860 22863 22864 22865 22868 (10 flits)
Class 0:
Remaining flits: 22824 22854 22857 22858 22859 22860 22863 22864 22865 22868 (10 flits)
Measured flits: 22824 22854 22857 22858 22859 22860 22863 22864 22865 22868 (10 flits)
Class 0:
Remaining flits: 22824 22854 22857 22858 22859 22860 22863 22864 22865 22868 (10 flits)
Measured flits: 22824 22854 22857 22858 22859 22860 22863 22864 22865 22868 (10 flits)
Class 0:
Remaining flits: 22824 22854 22857 22858 22859 22860 22863 22864 22865 22868 (10 flits)
Measured flits: 22824 22854 22857 22858 22859 22860 22863 22864 22865 22868 (10 flits)
Class 0:
Remaining flits: 22824 22854 22857 22858 22859 22860 22863 22864 22865 22868 (10 flits)
Measured flits: 22824 22854 22857 22858 22859 22860 22863 22864 22865 22868 (10 flits)
Class 0:
Remaining flits: 22824 22854 22857 22858 22859 22860 22863 22864 22865 22868 (10 flits)
Measured flits: 22824 22854 22857 22858 22859 22860 22863 22864 22865 22868 (10 flits)
Class 0:
Remaining flits: 22824 22854 22857 22858 22859 22860 22863 22864 22865 22868 (10 flits)
Measured flits: 22824 22854 22857 22858 22859 22860 22863 22864 22865 22868 (10 flits)
Class 0:
Remaining flits: 22824 22854 22857 22858 22859 22860 22863 22864 22865 22868 (10 flits)
Measured flits: 22824 22854 22857 22858 22859 22860 22863 22864 22865 22868 (10 flits)
Class 0:
Remaining flits: 22824 22854 22857 22858 22859 22860 22863 22864 22865 22868 (10 flits)
Measured flits: 22824 22854 22857 22858 22859 22860 22863 22864 22865 22868 (10 flits)
Class 0:
Remaining flits: 22824 22854 22857 22858 22859 22860 22863 22864 22865 22868 (10 flits)
Measured flits: 22824 22854 22857 22858 22859 22860 22863 22864 22865 22868 (10 flits)
Class 0:
Remaining flits: 22824 22854 22857 22858 22859 22860 22863 22864 22865 22868 (10 flits)
Measured flits: 22824 22854 22857 22858 22859 22860 22863 22864 22865 22868 (10 flits)
Class 0:
Remaining flits: 22824 22854 22857 22858 22859 22860 22863 22864 22865 22868 (10 flits)
Measured flits: 22824 22854 22857 22858 22859 22860 22863 22864 22865 22868 (10 flits)
Class 0:
Remaining flits: 22824 22854 22857 22858 22859 22860 22863 22864 22865 22868 (10 flits)
Measured flits: 22824 22854 22857 22858 22859 22860 22863 22864 22865 22868 (10 flits)
Class 0:
Remaining flits: 22824 22854 22857 22858 22859 22860 22863 22864 22865 22868 (10 flits)
Measured flits: 22824 22854 22857 22858 22859 22860 22863 22864 22865 22868 (10 flits)
Class 0:
Remaining flits: 22824 22854 22857 22858 22859 22860 22863 22864 22865 22868 (10 flits)
Measured flits: 22824 22854 22857 22858 22859 22860 22863 22864 22865 22868 (10 flits)
Class 0:
Remaining flits: 22824 22854 22857 22858 22859 22860 22863 22864 22865 22868 (10 flits)
Measured flits: 22824 22854 22857 22858 22859 22860 22863 22864 22865 22868 (10 flits)
Class 0:
Remaining flits: 22824 22854 22857 22858 22859 22860 22863 22864 22865 22868 (10 flits)
Measured flits: 22824 22854 22857 22858 22859 22860 22863 22864 22865 22868 (10 flits)
Class 0:
Remaining flits: 22824 22854 22857 22858 22859 22860 22863 22864 22865 22868 (10 flits)
Measured flits: 22824 22854 22857 22858 22859 22860 22863 22864 22865 22868 (10 flits)
Class 0:
Remaining flits: 22824 22854 22857 22858 22859 22860 22863 22864 22865 22868 (10 flits)
Measured flits: 22824 22854 22857 22858 22859 22860 22863 22864 22865 22868 (10 flits)
Class 0:
Remaining flits: 22824 22854 22857 22858 22859 22860 22863 22864 22865 22868 (10 flits)
Measured flits: 22824 22854 22857 22858 22859 22860 22863 22864 22865 22868 (10 flits)
Class 0:
Remaining flits: 22824 22854 22857 22858 22859 22860 22863 22864 22865 22868 (10 flits)
Measured flits: 22824 22854 22857 22858 22859 22860 22863 22864 22865 22868 (10 flits)
Class 0:
Remaining flits: 22824 22854 22857 22858 22859 22860 22863 22864 22865 22868 (10 flits)
Measured flits: 22824 22854 22857 22858 22859 22860 22863 22864 22865 22868 (10 flits)
Class 0:
Remaining flits: 22824 22854 22857 22858 22859 22860 22863 22864 22865 22868 (10 flits)
Measured flits: 22824 22854 22857 22858 22859 22860 22863 22864 22865 22868 (10 flits)
Class 0:
Remaining flits: 22824 22854 22857 22858 22859 22860 22863 22864 22865 22868 (10 flits)
Measured flits: 22824 22854 22857 22858 22859 22860 22863 22864 22865 22868 (10 flits)
Class 0:
Remaining flits: 22824 22854 22857 22858 22859 22860 22863 22864 22865 22868 (10 flits)
Measured flits: 22824 22854 22857 22858 22859 22860 22863 22864 22865 22868 (10 flits)
Class 0:
Remaining flits: 22824 22854 22857 22858 22859 22860 22863 22864 22865 22868 (10 flits)
Measured flits: 22824 22854 22857 22858 22859 22860 22863 22864 22865 22868 (10 flits)
Class 0:
Remaining flits: 22824 22854 22857 22858 22859 22860 22863 22864 22865 22868 (10 flits)
Measured flits: 22824 22854 22857 22858 22859 22860 22863 22864 22865 22868 (10 flits)
Class 0:
Remaining flits: 22824 22854 22857 22858 22859 22860 22863 22864 22865 22868 (10 flits)
Measured flits: 22824 22854 22857 22858 22859 22860 22863 22864 22865 22868 (10 flits)
Class 0:
Remaining flits: 22824 22854 22857 22858 22859 22860 22863 22864 22865 22868 (10 flits)
Measured flits: 22824 22854 22857 22858 22859 22860 22863 22864 22865 22868 (10 flits)
Class 0:
Remaining flits: 22824 22854 22857 22858 22859 22860 22863 22864 22865 22868 (10 flits)
Measured flits: 22824 22854 22857 22858 22859 22860 22863 22864 22865 22868 (10 flits)
Class 0:
Remaining flits: 22824 22854 22857 22858 22859 22860 22863 22864 22865 22868 (10 flits)
Measured flits: 22824 22854 22857 22858 22859 22860 22863 22864 22865 22868 (10 flits)
Class 0:
Remaining flits: 22824 22854 22857 22858 22859 22860 22863 22864 22865 22868 (10 flits)
Measured flits: 22824 22854 22857 22858 22859 22860 22863 22864 22865 22868 (10 flits)
Class 0:
Remaining flits: 22824 22854 22857 22858 22859 22860 22863 22864 22865 22868 (10 flits)
Measured flits: 22824 22854 22857 22858 22859 22860 22863 22864 22865 22868 (10 flits)
Class 0:
Remaining flits: 22824 22854 22857 22858 22859 22860 22863 22864 22865 22868 (10 flits)
Measured flits: 22824 22854 22857 22858 22859 22860 22863 22864 22865 22868 (10 flits)
Class 0:
Remaining flits: 22824 22854 22857 22858 22859 22860 22863 22864 22865 22868 (10 flits)
Measured flits: 22824 22854 22857 22858 22859 22860 22863 22864 22865 22868 (10 flits)
Class 0:
Remaining flits: 22824 22854 22857 22858 22859 22860 22863 22864 22865 22868 (10 flits)
Measured flits: 22824 22854 22857 22858 22859 22860 22863 22864 22865 22868 (10 flits)
Class 0:
Remaining flits: 22824 22854 22857 22858 22859 22860 22863 22864 22865 22868 (10 flits)
Measured flits: 22824 22854 22857 22858 22859 22860 22863 22864 22865 22868 (10 flits)
Class 0:
Remaining flits: 22824 22854 22857 22858 22859 22860 22863 22864 22865 22868 (10 flits)
Measured flits: 22824 22854 22857 22858 22859 22860 22863 22864 22865 22868 (10 flits)
Class 0:
Remaining flits: 22824 22854 22857 22858 22859 22860 22863 22864 22865 22868 (10 flits)
Measured flits: 22824 22854 22857 22858 22859 22860 22863 22864 22865 22868 (10 flits)
Class 0:
Remaining flits: 22824 22854 22857 22858 22859 22860 22863 22864 22865 22868 (10 flits)
Measured flits: 22824 22854 22857 22858 22859 22860 22863 22864 22865 22868 (10 flits)
Class 0:
Remaining flits: 22824 22854 22857 22858 22859 22860 22863 22864 22865 22868 (10 flits)
Measured flits: 22824 22854 22857 22858 22859 22860 22863 22864 22865 22868 (10 flits)
Class 0:
Remaining flits: 22824 22854 22857 22858 22859 22860 22863 22864 22865 22868 (10 flits)
Measured flits: 22824 22854 22857 22858 22859 22860 22863 22864 22865 22868 (10 flits)
Class 0:
Remaining flits: 22824 22854 22857 22858 22859 22860 22863 22864 22865 22868 (10 flits)
Measured flits: 22824 22854 22857 22858 22859 22860 22863 22864 22865 22868 (10 flits)
Class 0:
Remaining flits: 22824 22854 22857 22858 22859 22860 22863 22864 22865 22868 (10 flits)
Measured flits: 22824 22854 22857 22858 22859 22860 22863 22864 22865 22868 (10 flits)
Class 0:
Remaining flits: 22824 22854 22857 22858 22859 22860 22863 22864 22865 22868 (10 flits)
Measured flits: 22824 22854 22857 22858 22859 22860 22863 22864 22865 22868 (10 flits)
Time taken is 7000 cycles
====== Traffic class 0 ======

Total number of flits generated = 22869, changed lanes = 22408
Overall minimum packet latency = 206 (1 samples)
Overall average packet latency = 1566.9 (1 samples)
Overall maximum packet latency = 3733 (1 samples)
Overall minimum network latency = 39 (1 samples)
Overall average network latency = 106.332 (1 samples)
Overall maximum network latency = 324 (1 samples)
Overall minimum flit latency = 39 (1 samples)
Overall average flit latency = 106.779 (1 samples)
Overall maximum flit latency = 324 (1 samples)
Overall minimum fragmentation = 0 (1 samples)
Overall average fragmentation = 0 (1 samples)
Overall maximum fragmentation = 0 (1 samples)
Overall minimum injected packet rate = 0.166 (1 samples)
Overall average injected packet rate = 0.235542 (1 samples)
Overall maximum injected packet rate = 0.338 (1 samples)
Overall minimum accepted packet rate = 0.217333 (1 samples)
Overall average accepted packet rate = 0.235354 (1 samples)
Overall maximum accepted packet rate = 0.248667 (1 samples)
Overall minimum injected flit rate = 0.166 (1 samples)
Overall average injected flit rate = 0.235542 (1 samples)
Overall maximum injected flit rate = 0.338 (1 samples)
Overall minimum accepted flit rate = 0.217333 (1 samples)
Overall average accepted flit rate = 0.235354 (1 samples)
Overall maximum accepted flit rate = 0.248667 (1 samples)
Overall average injected packet size = 1 (1 samples)
Overall average accepted packet size = 1 (1 samples)
Overall average hops = 2.99442 (1 samples)
Overall throughput of the network (flits/cycle) = 7.61967
Overall throughput of the network (packets/cycle) = 7.61967
Total run time 9401.82
