make: Nothing to be done for 'all'.
Master: Running timer....
Master: Running SRC....
BEGIN Configuration File: ./examples/bitrev
// Topology

topology = torus;
k = 4;
n = 2;

// Routing
routing_function = dim_order;

// Flow control
num_vcs     = 4;
vc_buf_size = 4;
wait_for_tail_credit = 0;

// Router architecture
vc_allocator = islip;
sw_allocator = islip;
alloc_iters  = 1;

credit_delay   = 1;
routing_delay  = 1;
vc_alloc_delay = 1;
sw_alloc_delay = 1;

input_speedup     = 1;
output_speedup    = 1;
internal_speedup  = 1.0;

vc_busy_when_full = 0;

// Traffic
traffic = uniform;
packet_size = 1;

// Simulation
sim_type = throughput;

injection_rate = 0.29;

END Configuration File: ./examples/bitrev
===== Time: 1000 =====
Class 0:
Minimum packet latency = 7
Average packet latency = 111.083
Maximum packet latency = 467
Minimum network latency = 8
Average network latency = 67.4809
Maximum network latency = 176
Slowest packet = 419
Minimum flit latency = 8
Average flit latency = 67.4809
Maximum flit latency = 176
Slowest flit = 1549
Minimum fragmentation = 0
Average fragmentation = 0
Maximum fragmentation = 0
Minimum injected packet rate = 0.18 (at node 10)
Average injected packet rate = 0.232437
Maximum injected packet rate = 0.3 (at node 3)
Minimum accepted packet rate = 0.186 (at node 14)
Average accepted packet rate = 0.214188
Maximum accepted packet rate = 0.24 (at node 2)
Minimum injected flit rate = 0.18 (at node 10)
Average injected flit rate = 0.232437
Maximum injected flit rate = 0.3 (at node 3)
Minimum accepted flit rate = 0.186 (at node 14)
Average accepted flit rate = 0.214188
Maximum accepted flit rate = 0.24 (at node 2)
Total number of injected packets = 3719
Total number of injected flits = 3719
Average injected packet length = 1
Total number of accepted packets = 3427
Total number of accepted flits = 3427
Average accepted packet length = 1
Total in-flight flits = 300 (0 measured)
===== Time: 2000 =====
Class 0:
Minimum packet latency = 7
Average packet latency = 188.495
Maximum packet latency = 887
Minimum network latency = 8
Average network latency = 69.6804
Maximum network latency = 192
Slowest packet = 419
Minimum flit latency = 8
Average flit latency = 69.6804
Maximum flit latency = 192
Slowest flit = 4478
Minimum fragmentation = 0
Average fragmentation = 0
Maximum fragmentation = 0
Minimum injected packet rate = 0.1735 (at node 9)
Average injected packet rate = 0.230406
Maximum injected packet rate = 0.3005 (at node 3)
Minimum accepted packet rate = 0.1995 (at node 4)
Average accepted packet rate = 0.220656
Maximum accepted packet rate = 0.234 (at node 8)
Minimum injected flit rate = 0.1735 (at node 9)
Average injected flit rate = 0.230406
Maximum injected flit rate = 0.3005 (at node 3)
Minimum accepted flit rate = 0.1995 (at node 4)
Average accepted flit rate = 0.220656
Maximum accepted flit rate = 0.234 (at node 8)
Total number of injected packets = 7373
Total number of injected flits = 7373
Average injected packet length = 1
Total number of accepted packets = 7061
Total number of accepted flits = 7061
Average accepted packet length = 1
Total in-flight flits = 320 (0 measured)
===== Time: 3000 =====
Class 0:
Minimum packet latency = 7
Average packet latency = 419.964
Maximum packet latency = 1339
Minimum network latency = 8
Average network latency = 76.322
Maximum network latency = 180
Slowest packet = 6866
Minimum flit latency = 8
Average flit latency = 76.322
Maximum flit latency = 180
Slowest flit = 10140
Minimum fragmentation = 0
Average fragmentation = 0
Maximum fragmentation = 0
Minimum injected packet rate = 0.166 (at node 11)
Average injected packet rate = 0.2245
Maximum injected packet rate = 0.306 (at node 6)
Minimum accepted packet rate = 0.201 (at node 5)
Average accepted packet rate = 0.226687
Maximum accepted packet rate = 0.264 (at node 11)
Minimum injected flit rate = 0.166 (at node 11)
Average injected flit rate = 0.2245
Maximum injected flit rate = 0.306 (at node 6)
Minimum accepted flit rate = 0.201 (at node 5)
Average accepted flit rate = 0.226687
Maximum accepted flit rate = 0.264 (at node 11)
Total number of injected packets = 3592
Total number of injected flits = 3592
Average injected packet length = 1
Total number of accepted packets = 3627
Total number of accepted flits = 3627
Average accepted packet length = 1
Total in-flight flits = 283 (0 measured)
===== Time: 4000 =====
Class 0:
Minimum packet latency = 7
Average packet latency = 562.251
Maximum packet latency = 1793
Minimum network latency = 8
Average network latency = 77.2441
Maximum network latency = 184
Slowest packet = 10988
Minimum flit latency = 8
Average flit latency = 79.0535
Maximum flit latency = 184
Slowest flit = 12149
Minimum fragmentation = 0
Average fragmentation = 0
Maximum fragmentation = 0
Minimum injected packet rate = 0.166 (at node 8)
Average injected packet rate = 0.228875
Maximum injected packet rate = 0.31 (at node 7)
Minimum accepted packet rate = 0.209 (at node 13)
Average accepted packet rate = 0.227625
Maximum accepted packet rate = 0.25 (at node 5)
Minimum injected flit rate = 0.166 (at node 8)
Average injected flit rate = 0.228875
Maximum injected flit rate = 0.31 (at node 7)
Minimum accepted flit rate = 0.209 (at node 13)
Average accepted flit rate = 0.227625
Maximum accepted flit rate = 0.25 (at node 5)
Total number of injected packets = 3662
Total number of injected flits = 3662
Average injected packet length = 1
Total number of accepted packets = 3642
Total number of accepted flits = 3642
Average accepted packet length = 1
Total in-flight flits = 302 (302 measured)
===== Time: 5000 =====
Class 0:
Minimum packet latency = 7
Average packet latency = 646.879
Maximum packet latency = 2212
Minimum network latency = 8
Average network latency = 76.0011
Maximum network latency = 184
Slowest packet = 10988
Minimum flit latency = 8
Average flit latency = 76.9473
Maximum flit latency = 184
Slowest flit = 12149
Minimum fragmentation = 0
Average fragmentation = 0
Maximum fragmentation = 0
Minimum injected packet rate = 0.1665 (at node 8)
Average injected packet rate = 0.229094
Maximum injected packet rate = 0.305 (at node 7)
Minimum accepted packet rate = 0.207 (at node 4)
Average accepted packet rate = 0.229281
Maximum accepted packet rate = 0.253 (at node 3)
Minimum injected flit rate = 0.1665 (at node 8)
Average injected flit rate = 0.229094
Maximum injected flit rate = 0.305 (at node 7)
Minimum accepted flit rate = 0.207 (at node 4)
Average accepted flit rate = 0.229281
Maximum accepted flit rate = 0.253 (at node 3)
Total number of injected packets = 7331
Total number of injected flits = 7331
Average injected packet length = 1
Total number of accepted packets = 7337
Total number of accepted flits = 7337
Average accepted packet length = 1
Total in-flight flits = 277 (277 measured)
===== Time: 6000 =====
Class 0:
Minimum packet latency = 7
Average packet latency = 728.668
Maximum packet latency = 2671
Minimum network latency = 8
Average network latency = 74.3143
Maximum network latency = 194
Slowest packet = 10988
Minimum flit latency = 8
Average flit latency = 74.9901
Maximum flit latency = 194
Slowest flit = 17810
Minimum fragmentation = 0
Average fragmentation = 0
Maximum fragmentation = 0
Minimum injected packet rate = 0.166333 (at node 8)
Average injected packet rate = 0.228167
Maximum injected packet rate = 0.303 (at node 7)
Minimum accepted packet rate = 0.210667 (at node 4)
Average accepted packet rate = 0.228708
Maximum accepted packet rate = 0.247667 (at node 3)
Minimum injected flit rate = 0.166333 (at node 8)
Average injected flit rate = 0.228167
Maximum injected flit rate = 0.303 (at node 7)
Minimum accepted flit rate = 0.210667 (at node 4)
Average accepted flit rate = 0.228708
Maximum accepted flit rate = 0.247667 (at node 3)
Total number of injected packets = 10952
Total number of injected flits = 10952
Average injected packet length = 1
Total number of accepted packets = 10978
Total number of accepted flits = 10978
Average accepted packet length = 1
Total in-flight flits = 256 (256 measured)
Draining remaining packets ...
Class 0:
Remaining flits: 21420 21436 21443 21468 21469 21479 21484 21485 21490 21491 [...] (229 flits)
Measured flits: 21420 21436 21443 21468 21469 21479 21484 21485 21490 21491 [...] (229 flits)
Class 0:
Remaining flits: 21479 21485 21490 21491 21494 21504 21510 21511 21512 21513 [...] (203 flits)
Measured flits: 21479 21485 21490 21491 21494 21504 21510 21511 21512 21513 [...] (203 flits)
Class 0:
Remaining flits: 21491 21494 21530 21558 21568 21576 21580 21581 21583 21584 [...] (159 flits)
Measured flits: 21491 21494 21530 21558 21568 21576 21580 21581 21583 21584 [...] (159 flits)
Class 0:
Remaining flits: 21491 21558 21568 21580 21581 21596 21602 21605 21607 21611 [...] (136 flits)
Measured flits: 21491 21558 21568 21580 21581 21596 21602 21605 21607 21611 [...] (136 flits)
Class 0:
Remaining flits: 21596 21602 21605 21613 21621 21624 21630 21633 21637 21638 [...] (114 flits)
Measured flits: 21596 21602 21605 21613 21621 21624 21630 21633 21637 21638 [...] (114 flits)
Class 0:
Remaining flits: 21605 21630 21637 21639 21657 21659 21662 21664 21670 21679 [...] (98 flits)
Measured flits: 21605 21630 21637 21639 21657 21659 21662 21664 21670 21679 [...] (98 flits)
Class 0:
Remaining flits: 21637 21657 21659 21662 21664 21679 21680 21688 21695 21706 [...] (82 flits)
Measured flits: 21637 21657 21659 21662 21664 21679 21680 21688 21695 21706 [...] (82 flits)
Class 0:
Remaining flits: 21637 21659 21662 21679 21695 21708 21712 21717 21724 21725 [...] (71 flits)
Measured flits: 21637 21659 21662 21679 21695 21708 21712 21717 21724 21725 [...] (71 flits)
Class 0:
Remaining flits: 21659 21679 21708 21724 21725 21733 21764 21774 21778 21784 [...] (56 flits)
Measured flits: 21659 21679 21708 21724 21725 21733 21764 21774 21778 21784 [...] (56 flits)
Class 0:
Remaining flits: 21724 21725 21774 21778 21785 21791 21798 21802 21806 21807 [...] (42 flits)
Measured flits: 21724 21725 21774 21778 21785 21791 21798 21802 21806 21807 [...] (42 flits)
Class 0:
Remaining flits: 21778 21806 21807 21812 21832 21836 21839 21843 21846 21850 [...] (27 flits)
Measured flits: 21778 21806 21807 21812 21832 21836 21839 21843 21846 21850 [...] (27 flits)
Class 0:
Remaining flits: 21832 21836 21843 21850 21857 21867 21886 21887 21890 21891 [...] (19 flits)
Measured flits: 21832 21836 21843 21850 21857 21867 21886 21887 21890 21891 [...] (19 flits)
Class 0:
Remaining flits: 21832 21836 21850 21886 21891 21897 21901 21902 21914 21915 [...] (12 flits)
Measured flits: 21832 21836 21850 21886 21891 21897 21901 21902 21914 21915 [...] (12 flits)
Class 0:
Remaining flits: 21897 21901 21902 21914 21915 21918 21921 (7 flits)
Measured flits: 21897 21901 21902 21914 21915 21918 21921 (7 flits)
Class 0:
Remaining flits: 21897 21901 21902 21914 21915 21918 21921 (7 flits)
Measured flits: 21897 21901 21902 21914 21915 21918 21921 (7 flits)
Class 0:
Remaining flits: 21897 21901 21902 21914 21915 21918 21921 (7 flits)
Measured flits: 21897 21901 21902 21914 21915 21918 21921 (7 flits)
Class 0:
Remaining flits: 21897 21901 21902 21914 21915 21918 21921 (7 flits)
Measured flits: 21897 21901 21902 21914 21915 21918 21921 (7 flits)
Class 0:
Remaining flits: 21897 21901 21902 21914 21915 21918 21921 (7 flits)
Measured flits: 21897 21901 21902 21914 21915 21918 21921 (7 flits)
Class 0:
Remaining flits: 21897 21901 21902 21914 21915 21918 21921 (7 flits)
Measured flits: 21897 21901 21902 21914 21915 21918 21921 (7 flits)
Class 0:
Remaining flits: 21897 21901 21902 21914 21915 21918 21921 (7 flits)
Measured flits: 21897 21901 21902 21914 21915 21918 21921 (7 flits)
Class 0:
Remaining flits: 21897 21901 21902 21914 21915 21918 21921 (7 flits)
Measured flits: 21897 21901 21902 21914 21915 21918 21921 (7 flits)
Class 0:
Remaining flits: 21897 21901 21902 21914 21915 21918 21921 (7 flits)
Measured flits: 21897 21901 21902 21914 21915 21918 21921 (7 flits)
Class 0:
Remaining flits: 21897 21901 21902 21914 21915 21918 21921 (7 flits)
Measured flits: 21897 21901 21902 21914 21915 21918 21921 (7 flits)
Class 0:
Remaining flits: 21897 21901 21902 21914 21915 21918 21921 (7 flits)
Measured flits: 21897 21901 21902 21914 21915 21918 21921 (7 flits)
Class 0:
Remaining flits: 21897 21901 21902 21914 21915 21918 21921 (7 flits)
Measured flits: 21897 21901 21902 21914 21915 21918 21921 (7 flits)
Class 0:
Remaining flits: 21897 21901 21902 21914 21915 21918 21921 (7 flits)
Measured flits: 21897 21901 21902 21914 21915 21918 21921 (7 flits)
Class 0:
Remaining flits: 21897 21901 21902 21914 21915 21918 21921 (7 flits)
Measured flits: 21897 21901 21902 21914 21915 21918 21921 (7 flits)
Class 0:
Remaining flits: 21897 21901 21902 21914 21915 21918 21921 (7 flits)
Measured flits: 21897 21901 21902 21914 21915 21918 21921 (7 flits)
Class 0:
Remaining flits: 21897 21901 21902 21914 21915 21918 21921 (7 flits)
Measured flits: 21897 21901 21902 21914 21915 21918 21921 (7 flits)
Class 0:
Remaining flits: 21897 21901 21902 21914 21915 21918 21921 (7 flits)
Measured flits: 21897 21901 21902 21914 21915 21918 21921 (7 flits)
Class 0:
Remaining flits: 21897 21901 21902 21914 21915 21918 21921 (7 flits)
Measured flits: 21897 21901 21902 21914 21915 21918 21921 (7 flits)
Class 0:
Remaining flits: 21897 21901 21902 21914 21915 21918 21921 (7 flits)
Measured flits: 21897 21901 21902 21914 21915 21918 21921 (7 flits)
Class 0:
Remaining flits: 21897 21901 21902 21914 21915 21918 21921 (7 flits)
Measured flits: 21897 21901 21902 21914 21915 21918 21921 (7 flits)
Class 0:
Remaining flits: 21897 21901 21902 21914 21915 21918 21921 (7 flits)
Measured flits: 21897 21901 21902 21914 21915 21918 21921 (7 flits)
Class 0:
Remaining flits: 21897 21901 21902 21914 21915 21918 21921 (7 flits)
Measured flits: 21897 21901 21902 21914 21915 21918 21921 (7 flits)
Class 0:
Remaining flits: 21897 21901 21902 21914 21915 21918 21921 (7 flits)
Measured flits: 21897 21901 21902 21914 21915 21918 21921 (7 flits)
Class 0:
Remaining flits: 21897 21901 21902 21914 21915 21918 21921 (7 flits)
Measured flits: 21897 21901 21902 21914 21915 21918 21921 (7 flits)
Class 0:
Remaining flits: 21897 21901 21902 21914 21915 21918 21921 (7 flits)
Measured flits: 21897 21901 21902 21914 21915 21918 21921 (7 flits)
Class 0:
Remaining flits: 21897 21901 21902 21914 21915 21918 21921 (7 flits)
Measured flits: 21897 21901 21902 21914 21915 21918 21921 (7 flits)
Class 0:
Remaining flits: 21897 21901 21902 21914 21915 21918 21921 (7 flits)
Measured flits: 21897 21901 21902 21914 21915 21918 21921 (7 flits)
Class 0:
Remaining flits: 21897 21901 21902 21914 21915 21918 21921 (7 flits)
Measured flits: 21897 21901 21902 21914 21915 21918 21921 (7 flits)
Class 0:
Remaining flits: 21897 21901 21902 21914 21915 21918 21921 (7 flits)
Measured flits: 21897 21901 21902 21914 21915 21918 21921 (7 flits)
Class 0:
Remaining flits: 21897 21901 21902 21914 21915 21918 21921 (7 flits)
Measured flits: 21897 21901 21902 21914 21915 21918 21921 (7 flits)
Class 0:
Remaining flits: 21897 21901 21902 21914 21915 21918 21921 (7 flits)
Measured flits: 21897 21901 21902 21914 21915 21918 21921 (7 flits)
Class 0:
Remaining flits: 21897 21901 21902 21914 21915 21918 21921 (7 flits)
Measured flits: 21897 21901 21902 21914 21915 21918 21921 (7 flits)
Class 0:
Remaining flits: 21897 21901 21902 21914 21915 21918 21921 (7 flits)
Measured flits: 21897 21901 21902 21914 21915 21918 21921 (7 flits)
Class 0:
Remaining flits: 21897 21901 21902 21914 21915 21918 21921 (7 flits)
Measured flits: 21897 21901 21902 21914 21915 21918 21921 (7 flits)
Class 0:
Remaining flits: 21897 21901 21902 21914 21915 21918 21921 (7 flits)
Measured flits: 21897 21901 21902 21914 21915 21918 21921 (7 flits)
Class 0:
Remaining flits: 21897 21901 21902 21914 21915 21918 21921 (7 flits)
Measured flits: 21897 21901 21902 21914 21915 21918 21921 (7 flits)
Class 0:
Remaining flits: 21897 21901 21902 21914 21915 21918 21921 (7 flits)
Measured flits: 21897 21901 21902 21914 21915 21918 21921 (7 flits)
Class 0:
Remaining flits: 21897 21901 21902 21914 21915 21918 21921 (7 flits)
Measured flits: 21897 21901 21902 21914 21915 21918 21921 (7 flits)
Class 0:
Remaining flits: 21897 21901 21902 21914 21915 21918 21921 (7 flits)
Measured flits: 21897 21901 21902 21914 21915 21918 21921 (7 flits)
Class 0:
Remaining flits: 21897 21901 21902 21914 21915 21918 21921 (7 flits)
Measured flits: 21897 21901 21902 21914 21915 21918 21921 (7 flits)
Class 0:
Remaining flits: 21897 21901 21902 21914 21915 21918 21921 (7 flits)
Measured flits: 21897 21901 21902 21914 21915 21918 21921 (7 flits)
Class 0:
Remaining flits: 21897 21901 21902 21914 21915 21918 21921 (7 flits)
Measured flits: 21897 21901 21902 21914 21915 21918 21921 (7 flits)
Class 0:
Remaining flits: 21897 21901 21902 21914 21915 21918 21921 (7 flits)
Measured flits: 21897 21901 21902 21914 21915 21918 21921 (7 flits)
Class 0:
Remaining flits: 21897 21901 21902 21914 21915 21918 21921 (7 flits)
Measured flits: 21897 21901 21902 21914 21915 21918 21921 (7 flits)
Class 0:
Remaining flits: 21897 21901 21902 21914 21915 21918 21921 (7 flits)
Measured flits: 21897 21901 21902 21914 21915 21918 21921 (7 flits)
Class 0:
Remaining flits: 21897 21901 21902 21914 21915 21918 21921 (7 flits)
Measured flits: 21897 21901 21902 21914 21915 21918 21921 (7 flits)
Class 0:
Remaining flits: 21897 21901 21902 21914 21915 21918 21921 (7 flits)
Measured flits: 21897 21901 21902 21914 21915 21918 21921 (7 flits)
Class 0:
Remaining flits: 21897 21901 21902 21914 21915 21918 21921 (7 flits)
Measured flits: 21897 21901 21902 21914 21915 21918 21921 (7 flits)
Class 0:
Remaining flits: 21897 21901 21902 21914 21915 21918 21921 (7 flits)
Measured flits: 21897 21901 21902 21914 21915 21918 21921 (7 flits)
Class 0:
Remaining flits: 21897 21901 21902 21914 21915 21918 21921 (7 flits)
Measured flits: 21897 21901 21902 21914 21915 21918 21921 (7 flits)
Class 0:
Remaining flits: 21897 21901 21902 21914 21915 21918 21921 (7 flits)
Measured flits: 21897 21901 21902 21914 21915 21918 21921 (7 flits)
Class 0:
Remaining flits: 21897 21901 21902 21914 21915 21918 21921 (7 flits)
Measured flits: 21897 21901 21902 21914 21915 21918 21921 (7 flits)
Class 0:
Remaining flits: 21897 21901 21902 21914 21915 21918 21921 (7 flits)
Measured flits: 21897 21901 21902 21914 21915 21918 21921 (7 flits)
Class 0:
Remaining flits: 21897 21901 21902 21914 21915 21918 21921 (7 flits)
Measured flits: 21897 21901 21902 21914 21915 21918 21921 (7 flits)
Class 0:
Remaining flits: 21897 21901 21902 21914 21915 21918 21921 (7 flits)
Measured flits: 21897 21901 21902 21914 21915 21918 21921 (7 flits)
Class 0:
Remaining flits: 21897 21901 21902 21914 21915 21918 21921 (7 flits)
Measured flits: 21897 21901 21902 21914 21915 21918 21921 (7 flits)
Class 0:
Remaining flits: 21897 21901 21902 21914 21915 21918 21921 (7 flits)
Measured flits: 21897 21901 21902 21914 21915 21918 21921 (7 flits)
Class 0:
Remaining flits: 21897 21901 21902 21914 21915 21918 21921 (7 flits)
Measured flits: 21897 21901 21902 21914 21915 21918 21921 (7 flits)
Class 0:
Remaining flits: 21897 21901 21902 21914 21915 21918 21921 (7 flits)
Measured flits: 21897 21901 21902 21914 21915 21918 21921 (7 flits)
Class 0:
Remaining flits: 21897 21901 21902 21914 21915 21918 21921 (7 flits)
Measured flits: 21897 21901 21902 21914 21915 21918 21921 (7 flits)
Class 0:
Remaining flits: 21897 21901 21902 21914 21915 21918 21921 (7 flits)
Measured flits: 21897 21901 21902 21914 21915 21918 21921 (7 flits)
Class 0:
Remaining flits: 21897 21901 21902 21914 21915 21918 21921 (7 flits)
Measured flits: 21897 21901 21902 21914 21915 21918 21921 (7 flits)
Class 0:
Remaining flits: 21897 21901 21902 21914 21915 21918 21921 (7 flits)
Measured flits: 21897 21901 21902 21914 21915 21918 21921 (7 flits)
Class 0:
Remaining flits: 21897 21901 21902 21914 21915 21918 21921 (7 flits)
Measured flits: 21897 21901 21902 21914 21915 21918 21921 (7 flits)
Class 0:
Remaining flits: 21897 21901 21902 21914 21915 21918 21921 (7 flits)
Measured flits: 21897 21901 21902 21914 21915 21918 21921 (7 flits)
Class 0:
Remaining flits: 21897 21901 21902 21914 21915 21918 21921 (7 flits)
Measured flits: 21897 21901 21902 21914 21915 21918 21921 (7 flits)
Class 0:
Remaining flits: 21897 21901 21902 21914 21915 21918 21921 (7 flits)
Measured flits: 21897 21901 21902 21914 21915 21918 21921 (7 flits)
Class 0:
Remaining flits: 21897 21901 21902 21914 21915 21918 21921 (7 flits)
Measured flits: 21897 21901 21902 21914 21915 21918 21921 (7 flits)
Class 0:
Remaining flits: 21897 21901 21902 21914 21915 21918 21921 (7 flits)
Measured flits: 21897 21901 21902 21914 21915 21918 21921 (7 flits)
Class 0:
Remaining flits: 21897 21901 21902 21914 21915 21918 21921 (7 flits)
Measured flits: 21897 21901 21902 21914 21915 21918 21921 (7 flits)
Class 0:
Remaining flits: 21897 21901 21902 21914 21915 21918 21921 (7 flits)
Measured flits: 21897 21901 21902 21914 21915 21918 21921 (7 flits)
Class 0:
Remaining flits: 21897 21901 21902 21914 21915 21918 21921 (7 flits)
Measured flits: 21897 21901 21902 21914 21915 21918 21921 (7 flits)
Class 0:
Remaining flits: 21897 21901 21902 21914 21915 21918 21921 (7 flits)
Measured flits: 21897 21901 21902 21914 21915 21918 21921 (7 flits)
Class 0:
Remaining flits: 21897 21901 21902 21914 21915 21918 21921 (7 flits)
Measured flits: 21897 21901 21902 21914 21915 21918 21921 (7 flits)
Class 0:
Remaining flits: 21897 21901 21902 21914 21915 21918 21921 (7 flits)
Measured flits: 21897 21901 21902 21914 21915 21918 21921 (7 flits)
Class 0:
Remaining flits: 21897 21901 21902 21914 21915 21918 21921 (7 flits)
Measured flits: 21897 21901 21902 21914 21915 21918 21921 (7 flits)
Class 0:
Remaining flits: 21897 21901 21902 21914 21915 21918 21921 (7 flits)
Measured flits: 21897 21901 21902 21914 21915 21918 21921 (7 flits)
Class 0:
Remaining flits: 21897 21901 21902 21914 21915 21918 21921 (7 flits)
Measured flits: 21897 21901 21902 21914 21915 21918 21921 (7 flits)
Class 0:
Remaining flits: 21897 21901 21902 21914 21915 21918 21921 (7 flits)
Measured flits: 21897 21901 21902 21914 21915 21918 21921 (7 flits)
Class 0:
Remaining flits: 21897 21901 21902 21914 21915 21918 21921 (7 flits)
Measured flits: 21897 21901 21902 21914 21915 21918 21921 (7 flits)
Class 0:
Remaining flits: 21897 21901 21902 21914 21915 21918 21921 (7 flits)
Measured flits: 21897 21901 21902 21914 21915 21918 21921 (7 flits)
Class 0:
Remaining flits: 21897 21901 21902 21914 21915 21918 21921 (7 flits)
Measured flits: 21897 21901 21902 21914 21915 21918 21921 (7 flits)
Class 0:
Remaining flits: 21897 21901 21902 21914 21915 21918 21921 (7 flits)
Measured flits: 21897 21901 21902 21914 21915 21918 21921 (7 flits)
Class 0:
Remaining flits: 21897 21901 21902 21914 21915 21918 21921 (7 flits)
Measured flits: 21897 21901 21902 21914 21915 21918 21921 (7 flits)
Class 0:
Remaining flits: 21897 21901 21902 21914 21915 21918 21921 (7 flits)
Measured flits: 21897 21901 21902 21914 21915 21918 21921 (7 flits)
Class 0:
Remaining flits: 21897 21901 21902 21914 21915 21918 21921 (7 flits)
Measured flits: 21897 21901 21902 21914 21915 21918 21921 (7 flits)
Class 0:
Remaining flits: 21897 21901 21902 21914 21915 21918 21921 (7 flits)
Measured flits: 21897 21901 21902 21914 21915 21918 21921 (7 flits)
Class 0:
Remaining flits: 21897 21901 21902 21914 21915 21918 21921 (7 flits)
Measured flits: 21897 21901 21902 21914 21915 21918 21921 (7 flits)
Time taken is 7000 cycles
====== Traffic class 0 ======

Total number of flits generated = 21922, changed lanes = 21389
Overall minimum packet latency = 7 (1 samples)
Overall average packet latency = 751.835 (1 samples)
Overall maximum packet latency = 2725 (1 samples)
Overall minimum network latency = 8 (1 samples)
Overall average network latency = 74.8753 (1 samples)
Overall maximum network latency = 194 (1 samples)
Overall minimum flit latency = 8 (1 samples)
Overall average flit latency = 75.522 (1 samples)
Overall maximum flit latency = 194 (1 samples)
Overall minimum fragmentation = 0 (1 samples)
Overall average fragmentation = 0 (1 samples)
Overall maximum fragmentation = 0 (1 samples)
Overall minimum injected packet rate = 0.166333 (1 samples)
Overall average injected packet rate = 0.228167 (1 samples)
Overall maximum injected packet rate = 0.303 (1 samples)
Overall minimum accepted packet rate = 0.210667 (1 samples)
Overall average accepted packet rate = 0.228708 (1 samples)
Overall maximum accepted packet rate = 0.247667 (1 samples)
Overall minimum injected flit rate = 0.166333 (1 samples)
Overall average injected flit rate = 0.228167 (1 samples)
Overall maximum injected flit rate = 0.303 (1 samples)
Overall minimum accepted flit rate = 0.210667 (1 samples)
Overall average accepted flit rate = 0.228708 (1 samples)
Overall maximum accepted flit rate = 0.247667 (1 samples)
Overall average injected packet size = 1 (1 samples)
Overall average accepted packet size = 1 (1 samples)
Overall average hops = 2.99013 (1 samples)
Overall throughput of the network (flits/cycle) = 7.305
Overall throughput of the network (packets/cycle) = 7.305
Total run time 3973.75
