make: Nothing to be done for 'all'.
Master: Running timer....
Master: Running SRC....
BEGIN Configuration File: ./examples/bitrev
// Topology

topology = torus;
k = 4;
n = 2;

// Routing
routing_function = dim_order;

// Flow control
num_vcs     = 4;
vc_buf_size = 4;
wait_for_tail_credit = 0;

// Router architecture
vc_allocator = islip;
sw_allocator = islip;
alloc_iters  = 1;

credit_delay   = 1;
routing_delay  = 1;
vc_alloc_delay = 1;
sw_alloc_delay = 1;

input_speedup     = 1;
output_speedup    = 1;
internal_speedup  = 1.0;

vc_busy_when_full = 0;

// Traffic
traffic = uniform;
packet_size = 1;

// Simulation
sim_type = throughput;

injection_rate = 0.07;

END Configuration File: ./examples/bitrev
===== Time: 1000 =====
Class 0:
Minimum packet latency = 7
Average packet latency = 30.2682
Maximum packet latency = 227
Minimum network latency = 8
Average network latency = 31.2682
Maximum network latency = 228
Slowest packet = 193
Minimum flit latency = 8
Average flit latency = 31.2682
Maximum flit latency = 228
Slowest flit = 193
Minimum fragmentation = 0
Average fragmentation = 0
Maximum fragmentation = 0
Minimum injected packet rate = 0.058 (at node 8)
Average injected packet rate = 0.068125
Maximum injected packet rate = 0.077 (at node 1)
Minimum accepted packet rate = 0.05 (at node 11)
Average accepted packet rate = 0.0661875
Maximum accepted packet rate = 0.074 (at node 4)
Minimum injected flit rate = 0.058 (at node 8)
Average injected flit rate = 0.068125
Maximum injected flit rate = 0.077 (at node 1)
Minimum accepted flit rate = 0.05 (at node 11)
Average accepted flit rate = 0.0661875
Maximum accepted flit rate = 0.074 (at node 4)
Total number of injected packets = 1090
Total number of injected flits = 1090
Average injected packet length = 1
Total number of accepted packets = 1059
Total number of accepted flits = 1059
Average accepted packet length = 1
Total in-flight flits = 31 (0 measured)
===== Time: 2000 =====
Class 0:
Minimum packet latency = 7
Average packet latency = 30.5279
Maximum packet latency = 238
Minimum network latency = 8
Average network latency = 31.5279
Maximum network latency = 239
Slowest packet = 1477
Minimum flit latency = 8
Average flit latency = 31.5279
Maximum flit latency = 239
Slowest flit = 1477
Minimum fragmentation = 0
Average fragmentation = 0
Maximum fragmentation = 0
Minimum injected packet rate = 0.0565 (at node 8)
Average injected packet rate = 0.0672187
Maximum injected packet rate = 0.075 (at node 4)
Minimum accepted packet rate = 0.0525 (at node 14)
Average accepted packet rate = 0.0660625
Maximum accepted packet rate = 0.077 (at node 15)
Minimum injected flit rate = 0.0565 (at node 8)
Average injected flit rate = 0.0672187
Maximum injected flit rate = 0.075 (at node 4)
Minimum accepted flit rate = 0.0525 (at node 14)
Average accepted flit rate = 0.0660625
Maximum accepted flit rate = 0.077 (at node 15)
Total number of injected packets = 2151
Total number of injected flits = 2151
Average injected packet length = 1
Total number of accepted packets = 2114
Total number of accepted flits = 2114
Average accepted packet length = 1
Total in-flight flits = 37 (0 measured)
===== Time: 3000 =====
Class 0:
Minimum packet latency = 7
Average packet latency = 31.1157
Maximum packet latency = 275
Minimum network latency = 8
Average network latency = 32.1157
Maximum network latency = 276
Slowest packet = 1901
Minimum flit latency = 8
Average flit latency = 32.1157
Maximum flit latency = 276
Slowest flit = 1901
Minimum fragmentation = 0
Average fragmentation = 0
Maximum fragmentation = 0
Minimum injected packet rate = 0.064 (at node 4)
Average injected packet rate = 0.0718125
Maximum injected packet rate = 0.081 (at node 6)
Minimum accepted packet rate = 0.054 (at node 4)
Average accepted packet rate = 0.0713125
Maximum accepted packet rate = 0.085 (at node 11)
Minimum injected flit rate = 0.064 (at node 4)
Average injected flit rate = 0.0718125
Maximum injected flit rate = 0.081 (at node 6)
Minimum accepted flit rate = 0.054 (at node 4)
Average accepted flit rate = 0.0713125
Maximum accepted flit rate = 0.085 (at node 11)
Total number of injected packets = 1149
Total number of injected flits = 1149
Average injected packet length = 1
Total number of accepted packets = 1141
Total number of accepted flits = 1141
Average accepted packet length = 1
Total in-flight flits = 45 (0 measured)
===== Time: 4000 =====
Class 0:
Minimum packet latency = 7
Average packet latency = 30.3754
Maximum packet latency = 93
Minimum network latency = 8
Average network latency = 31.3754
Maximum network latency = 94
Slowest packet = 4143
Minimum flit latency = 8
Average flit latency = 31.5788
Maximum flit latency = 94
Slowest flit = 4143
Minimum fragmentation = 0
Average fragmentation = 0
Maximum fragmentation = 0
Minimum injected packet rate = 0.051 (at node 0)
Average injected packet rate = 0.067875
Maximum injected packet rate = 0.083 (at node 15)
Minimum accepted packet rate = 0.053 (at node 10)
Average accepted packet rate = 0.06825
Maximum accepted packet rate = 0.083 (at node 7)
Minimum injected flit rate = 0.051 (at node 0)
Average injected flit rate = 0.067875
Maximum injected flit rate = 0.083 (at node 15)
Minimum accepted flit rate = 0.053 (at node 10)
Average accepted flit rate = 0.06825
Maximum accepted flit rate = 0.083 (at node 7)
Total number of injected packets = 1086
Total number of injected flits = 1086
Average injected packet length = 1
Total number of accepted packets = 1092
Total number of accepted flits = 1092
Average accepted packet length = 1
Total in-flight flits = 39 (39 measured)
===== Time: 5000 =====
Class 0:
Minimum packet latency = 7
Average packet latency = 30.4723
Maximum packet latency = 171
Minimum network latency = 8
Average network latency = 31.4723
Maximum network latency = 172
Slowest packet = 4298
Minimum flit latency = 8
Average flit latency = 31.5724
Maximum flit latency = 172
Slowest flit = 4298
Minimum fragmentation = 0
Average fragmentation = 0
Maximum fragmentation = 0
Minimum injected packet rate = 0.059 (at node 0)
Average injected packet rate = 0.0675625
Maximum injected packet rate = 0.0795 (at node 15)
Minimum accepted packet rate = 0.0595 (at node 3)
Average accepted packet rate = 0.0679687
Maximum accepted packet rate = 0.08 (at node 6)
Minimum injected flit rate = 0.059 (at node 0)
Average injected flit rate = 0.0675625
Maximum injected flit rate = 0.0795 (at node 15)
Minimum accepted flit rate = 0.0595 (at node 3)
Average accepted flit rate = 0.0679687
Maximum accepted flit rate = 0.08 (at node 6)
Total number of injected packets = 2162
Total number of injected flits = 2162
Average injected packet length = 1
Total number of accepted packets = 2175
Total number of accepted flits = 2175
Average accepted packet length = 1
Total in-flight flits = 32 (32 measured)
===== Time: 6000 =====
Class 0:
Minimum packet latency = 7
Average packet latency = 30.7243
Maximum packet latency = 171
Minimum network latency = 8
Average network latency = 31.7243
Maximum network latency = 172
Slowest packet = 4298
Minimum flit latency = 8
Average flit latency = 31.7871
Maximum flit latency = 172
Slowest flit = 4298
Minimum fragmentation = 0
Average fragmentation = 0
Maximum fragmentation = 0
Minimum injected packet rate = 0.0623333 (at node 0)
Average injected packet rate = 0.0681875
Maximum injected packet rate = 0.08 (at node 15)
Minimum accepted packet rate = 0.0596667 (at node 4)
Average accepted packet rate = 0.0685
Maximum accepted packet rate = 0.0763333 (at node 6)
Minimum injected flit rate = 0.0623333 (at node 0)
Average injected flit rate = 0.0681875
Maximum injected flit rate = 0.08 (at node 15)
Minimum accepted flit rate = 0.0596667 (at node 4)
Average accepted flit rate = 0.0685
Maximum accepted flit rate = 0.0763333 (at node 6)
Total number of injected packets = 3273
Total number of injected flits = 3273
Average injected packet length = 1
Total number of accepted packets = 3288
Total number of accepted flits = 3288
Average accepted packet length = 1
Total in-flight flits = 30 (30 measured)
Draining remaining packets ...
Class 0:
Remaining flits: 6548 6553 6554 6555 6557 6559 6562 6563 6564 6565 [...] (17 flits)
Measured flits: 6548 6553 6554 6555 6557 6559 6562 6563 6564 6565 [...] (17 flits)
Class 0:
Remaining flits: 6555 6559 6563 6564 6565 6566 6567 6568 6569 6570 [...] (11 flits)
Measured flits: 6555 6559 6563 6564 6565 6566 6567 6568 6569 6570 [...] (11 flits)
Class 0:
Remaining flits: 6563 6566 6569 6570 (4 flits)
Measured flits: 6563 6566 6569 6570 (4 flits)
Class 0:
Remaining flits: 6563 (1 flits)
Measured flits: 6563 (1 flits)
Class 0:
Remaining flits: (0 flits)
Measured flits: (0 flits)
Class 0:
Remaining flits: (0 flits)
Measured flits: (0 flits)
Class 0:
Remaining flits: (0 flits)
Measured flits: (0 flits)
Class 0:
Remaining flits: (0 flits)
Measured flits: (0 flits)
Class 0:
Remaining flits: (0 flits)
Measured flits: (0 flits)
Class 0:
Remaining flits: (0 flits)
Measured flits: (0 flits)
Class 0:
Remaining flits: (0 flits)
Measured flits: (0 flits)
Class 0:
Remaining flits: (0 flits)
Measured flits: (0 flits)
Class 0:
Remaining flits: (0 flits)
Measured flits: (0 flits)
Class 0:
Remaining flits: (0 flits)
Measured flits: (0 flits)
Class 0:
Remaining flits: (0 flits)
Measured flits: (0 flits)
Class 0:
Remaining flits: (0 flits)
Measured flits: (0 flits)
Class 0:
Remaining flits: (0 flits)
Measured flits: (0 flits)
Class 0:
Remaining flits: (0 flits)
Measured flits: (0 flits)
Class 0:
Remaining flits: (0 flits)
Measured flits: (0 flits)
Class 0:
Remaining flits: (0 flits)
Measured flits: (0 flits)
Class 0:
Remaining flits: (0 flits)
Measured flits: (0 flits)
Class 0:
Remaining flits: (0 flits)
Measured flits: (0 flits)
Class 0:
Remaining flits: (0 flits)
Measured flits: (0 flits)
Class 0:
Remaining flits: (0 flits)
Measured flits: (0 flits)
Class 0:
Remaining flits: (0 flits)
Measured flits: (0 flits)
Class 0:
Remaining flits: (0 flits)
Measured flits: (0 flits)
Class 0:
Remaining flits: (0 flits)
Measured flits: (0 flits)
Class 0:
Remaining flits: (0 flits)
Measured flits: (0 flits)
Class 0:
Remaining flits: (0 flits)
Measured flits: (0 flits)
Class 0:
Remaining flits: (0 flits)
Measured flits: (0 flits)
Class 0:
Remaining flits: (0 flits)
Measured flits: (0 flits)
Class 0:
Remaining flits: (0 flits)
Measured flits: (0 flits)
Class 0:
Remaining flits: (0 flits)
Measured flits: (0 flits)
Class 0:
Remaining flits: (0 flits)
Measured flits: (0 flits)
Class 0:
Remaining flits: (0 flits)
Measured flits: (0 flits)
Class 0:
Remaining flits: (0 flits)
Measured flits: (0 flits)
Class 0:
Remaining flits: (0 flits)
Measured flits: (0 flits)
Class 0:
Remaining flits: (0 flits)
Measured flits: (0 flits)
Class 0:
Remaining flits: (0 flits)
Measured flits: (0 flits)
Class 0:
Remaining flits: (0 flits)
Measured flits: (0 flits)
Class 0:
Remaining flits: (0 flits)
Measured flits: (0 flits)
Class 0:
Remaining flits: (0 flits)
Measured flits: (0 flits)
Class 0:
Remaining flits: (0 flits)
Measured flits: (0 flits)
Class 0:
Remaining flits: (0 flits)
Measured flits: (0 flits)
Class 0:
Remaining flits: (0 flits)
Measured flits: (0 flits)
Class 0:
Remaining flits: (0 flits)
Measured flits: (0 flits)
Class 0:
Remaining flits: (0 flits)
Measured flits: (0 flits)
Class 0:
Remaining flits: (0 flits)
Measured flits: (0 flits)
Class 0:
Remaining flits: (0 flits)
Measured flits: (0 flits)
Class 0:
Remaining flits: (0 flits)
Measured flits: (0 flits)
Class 0:
Remaining flits: (0 flits)
Measured flits: (0 flits)
Class 0:
Remaining flits: (0 flits)
Measured flits: (0 flits)
Class 0:
Remaining flits: (0 flits)
Measured flits: (0 flits)
Class 0:
Remaining flits: (0 flits)
Measured flits: (0 flits)
Class 0:
Remaining flits: (0 flits)
Measured flits: (0 flits)
Class 0:
Remaining flits: (0 flits)
Measured flits: (0 flits)
Class 0:
Remaining flits: (0 flits)
Measured flits: (0 flits)
Class 0:
Remaining flits: (0 flits)
Measured flits: (0 flits)
Class 0:
Remaining flits: (0 flits)
Measured flits: (0 flits)
Class 0:
Remaining flits: (0 flits)
Measured flits: (0 flits)
Class 0:
Remaining flits: (0 flits)
Measured flits: (0 flits)
Class 0:
Remaining flits: (0 flits)
Measured flits: (0 flits)
Class 0:
Remaining flits: (0 flits)
Measured flits: (0 flits)
Class 0:
Remaining flits: (0 flits)
Measured flits: (0 flits)
Class 0:
Remaining flits: (0 flits)
Measured flits: (0 flits)
Class 0:
Remaining flits: (0 flits)
Measured flits: (0 flits)
Class 0:
Remaining flits: (0 flits)
Measured flits: (0 flits)
Class 0:
Remaining flits: (0 flits)
Measured flits: (0 flits)
Class 0:
Remaining flits: (0 flits)
Measured flits: (0 flits)
Class 0:
Remaining flits: (0 flits)
Measured flits: (0 flits)
Class 0:
Remaining flits: (0 flits)
Measured flits: (0 flits)
Class 0:
Remaining flits: (0 flits)
Measured flits: (0 flits)
Class 0:
Remaining flits: (0 flits)
Measured flits: (0 flits)
Class 0:
Remaining flits: (0 flits)
Measured flits: (0 flits)
Class 0:
Remaining flits: (0 flits)
Measured flits: (0 flits)
Class 0:
Remaining flits: (0 flits)
Measured flits: (0 flits)
Class 0:
Remaining flits: (0 flits)
Measured flits: (0 flits)
Class 0:
Remaining flits: (0 flits)
Measured flits: (0 flits)
Class 0:
Remaining flits: (0 flits)
Measured flits: (0 flits)
Class 0:
Remaining flits: (0 flits)
Measured flits: (0 flits)
Class 0:
Remaining flits: (0 flits)
Measured flits: (0 flits)
Class 0:
Remaining flits: (0 flits)
Measured flits: (0 flits)
Class 0:
Remaining flits: (0 flits)
Measured flits: (0 flits)
Class 0:
Remaining flits: (0 flits)
Measured flits: (0 flits)
Class 0:
Remaining flits: (0 flits)
Measured flits: (0 flits)
Class 0:
Remaining flits: (0 flits)
Measured flits: (0 flits)
Class 0:
Remaining flits: (0 flits)
Measured flits: (0 flits)
Class 0:
Remaining flits: (0 flits)
Measured flits: (0 flits)
Class 0:
Remaining flits: (0 flits)
Measured flits: (0 flits)
Class 0:
Remaining flits: (0 flits)
Measured flits: (0 flits)
Class 0:
Remaining flits: (0 flits)
Measured flits: (0 flits)
Class 0:
Remaining flits: (0 flits)
Measured flits: (0 flits)
Class 0:
Remaining flits: (0 flits)
Measured flits: (0 flits)
Class 0:
Remaining flits: (0 flits)
Measured flits: (0 flits)
Class 0:
Remaining flits: (0 flits)
Measured flits: (0 flits)
Class 0:
Remaining flits: (0 flits)
Measured flits: (0 flits)
Class 0:
Remaining flits: (0 flits)
Measured flits: (0 flits)
Class 0:
Remaining flits: (0 flits)
Measured flits: (0 flits)
Class 0:
Remaining flits: (0 flits)
Measured flits: (0 flits)
Class 0:
Remaining flits: (0 flits)
Measured flits: (0 flits)
Class 0:
Remaining flits: (0 flits)
Measured flits: (0 flits)
Time taken is 7000 cycles
====== Traffic class 0 ======

Total number of flits generated = 6573, changed lanes = 6275
Overall minimum packet latency = 7 (1 samples)
Overall average packet latency = 30.7317 (1 samples)
Overall maximum packet latency = 171 (1 samples)
Overall minimum network latency = 8 (1 samples)
Overall average network latency = 31.7317 (1 samples)
Overall maximum network latency = 172 (1 samples)
Overall minimum flit latency = 8 (1 samples)
Overall average flit latency = 31.7939 (1 samples)
Overall maximum flit latency = 172 (1 samples)
Overall minimum fragmentation = 0 (1 samples)
Overall average fragmentation = 0 (1 samples)
Overall maximum fragmentation = 0 (1 samples)
Overall minimum injected packet rate = 0.0623333 (1 samples)
Overall average injected packet rate = 0.0681875 (1 samples)
Overall maximum injected packet rate = 0.08 (1 samples)
Overall minimum accepted packet rate = 0.0596667 (1 samples)
Overall average accepted packet rate = 0.0685 (1 samples)
Overall maximum accepted packet rate = 0.0763333 (1 samples)
Overall minimum injected flit rate = 0.0623333 (1 samples)
Overall average injected flit rate = 0.0681875 (1 samples)
Overall maximum injected flit rate = 0.08 (1 samples)
Overall minimum accepted flit rate = 0.0596667 (1 samples)
Overall average accepted flit rate = 0.0685 (1 samples)
Overall maximum accepted flit rate = 0.0763333 (1 samples)
Overall average injected packet size = 1 (1 samples)
Overall average accepted packet size = 1 (1 samples)
Overall average hops = 3.00611 (1 samples)
Overall throughput of the network (flits/cycle) = 2.191
Overall throughput of the network (packets/cycle) = 2.191
Total run time 10.0411
