make: Nothing to be done for 'all'.
Master: Running timer....
Master: Running SRC....
BEGIN Configuration File: ./examples/bitrev
// Topology

topology = torus;
k = 4;
n = 2;

// Routing
routing_function = dim_order;

// Flow control
num_vcs     = 4;
vc_buf_size = 4;
wait_for_tail_credit = 0;

// Router architecture
vc_allocator = islip;
sw_allocator = islip;
alloc_iters  = 1;

credit_delay   = 1;
routing_delay  = 1;
vc_alloc_delay = 1;
sw_alloc_delay = 1;

input_speedup     = 1;
output_speedup    = 1;
internal_speedup  = 1.0;

vc_busy_when_full = 0;

// Traffic
traffic = uniform;
packet_size = 1;

// Simulation
sim_type = throughput;

injection_rate = 0.35;

END Configuration File: ./examples/bitrev
===== Time: 1000 =====
Class 0:
Minimum packet latency = 7
Average packet latency = 148.833
Maximum packet latency = 595
Minimum network latency = 8
Average network latency = 83.1999
Maximum network latency = 212
Slowest packet = 354
Minimum flit latency = 8
Average flit latency = 83.1999
Maximum flit latency = 212
Slowest flit = 2914
Minimum fragmentation = 0
Average fragmentation = 0
Maximum fragmentation = 0
Minimum injected packet rate = 0.181 (at node 14)
Average injected packet rate = 0.2525
Maximum injected packet rate = 0.347 (at node 2)
Minimum accepted packet rate = 0.212 (at node 10)
Average accepted packet rate = 0.230375
Maximum accepted packet rate = 0.251 (at node 1)
Minimum injected flit rate = 0.181 (at node 14)
Average injected flit rate = 0.2525
Maximum injected flit rate = 0.347 (at node 2)
Minimum accepted flit rate = 0.212 (at node 10)
Average accepted flit rate = 0.230375
Maximum accepted flit rate = 0.251 (at node 1)
Total number of injected packets = 4040
Total number of injected flits = 4040
Average injected packet length = 1
Total number of accepted packets = 3686
Total number of accepted flits = 3686
Average accepted packet length = 1
Total in-flight flits = 363 (0 measured)
===== Time: 2000 =====
Class 0:
Minimum packet latency = 7
Average packet latency = 270.685
Maximum packet latency = 1138
Minimum network latency = 8
Average network latency = 90.6165
Maximum network latency = 229
Slowest packet = 354
Minimum flit latency = 8
Average flit latency = 90.6165
Maximum flit latency = 229
Slowest flit = 6110
Minimum fragmentation = 0
Average fragmentation = 0
Maximum fragmentation = 0
Minimum injected packet rate = 0.174 (at node 8)
Average injected packet rate = 0.245719
Maximum injected packet rate = 0.3515 (at node 2)
Minimum accepted packet rate = 0.211 (at node 4)
Average accepted packet rate = 0.233469
Maximum accepted packet rate = 0.2565 (at node 7)
Minimum injected flit rate = 0.174 (at node 8)
Average injected flit rate = 0.245719
Maximum injected flit rate = 0.3515 (at node 2)
Minimum accepted flit rate = 0.211 (at node 4)
Average accepted flit rate = 0.233469
Maximum accepted flit rate = 0.2565 (at node 7)
Total number of injected packets = 7863
Total number of injected flits = 7863
Average injected packet length = 1
Total number of accepted packets = 7471
Total number of accepted flits = 7471
Average accepted packet length = 1
Total in-flight flits = 404 (0 measured)
===== Time: 3000 =====
Class 0:
Minimum packet latency = 8
Average packet latency = 668.584
Maximum packet latency = 1673
Minimum network latency = 9
Average network latency = 106.147
Maximum network latency = 258
Slowest packet = 7660
Minimum flit latency = 9
Average flit latency = 106.147
Maximum flit latency = 258
Slowest flit = 10413
Minimum fragmentation = 0
Average fragmentation = 0
Maximum fragmentation = 0
Minimum injected packet rate = 0.165 (at node 8)
Average injected packet rate = 0.230813
Maximum injected packet rate = 0.339 (at node 6)
Minimum accepted packet rate = 0.212 (at node 5)
Average accepted packet rate = 0.230937
Maximum accepted packet rate = 0.262 (at node 8)
Minimum injected flit rate = 0.165 (at node 8)
Average injected flit rate = 0.230813
Maximum injected flit rate = 0.339 (at node 6)
Minimum accepted flit rate = 0.212 (at node 5)
Average accepted flit rate = 0.230937
Maximum accepted flit rate = 0.262 (at node 8)
Total number of injected packets = 3693
Total number of injected flits = 3693
Average injected packet length = 1
Total number of accepted packets = 3695
Total number of accepted flits = 3695
Average accepted packet length = 1
Total in-flight flits = 401 (0 measured)
===== Time: 4000 =====
Class 0:
Minimum packet latency = 8
Average packet latency = 910.402
Maximum packet latency = 2185
Minimum network latency = 9
Average network latency = 100.041
Maximum network latency = 213
Slowest packet = 11569
Minimum flit latency = 9
Average flit latency = 101.708
Maximum flit latency = 275
Slowest flit = 11457
Minimum fragmentation = 0
Average fragmentation = 0
Maximum fragmentation = 0
Minimum injected packet rate = 0.165 (at node 11)
Average injected packet rate = 0.2425
Maximum injected packet rate = 0.341 (at node 5)
Minimum accepted packet rate = 0.225 (at node 14)
Average accepted packet rate = 0.240875
Maximum accepted packet rate = 0.266 (at node 7)
Minimum injected flit rate = 0.165 (at node 11)
Average injected flit rate = 0.2425
Maximum injected flit rate = 0.341 (at node 5)
Minimum accepted flit rate = 0.225 (at node 14)
Average accepted flit rate = 0.240875
Maximum accepted flit rate = 0.266 (at node 7)
Total number of injected packets = 3880
Total number of injected flits = 3880
Average injected packet length = 1
Total number of accepted packets = 3854
Total number of accepted flits = 3854
Average accepted packet length = 1
Total in-flight flits = 430 (430 measured)
===== Time: 5000 =====
Class 0:
Minimum packet latency = 8
Average packet latency = 1059.97
Maximum packet latency = 2721
Minimum network latency = 9
Average network latency = 104.476
Maximum network latency = 245
Slowest packet = 11569
Minimum flit latency = 9
Average flit latency = 105.094
Maximum flit latency = 275
Slowest flit = 11457
Minimum fragmentation = 0
Average fragmentation = 0
Maximum fragmentation = 0
Minimum injected packet rate = 0.1655 (at node 11)
Average injected packet rate = 0.23575
Maximum injected packet rate = 0.332 (at node 2)
Minimum accepted packet rate = 0.208 (at node 4)
Average accepted packet rate = 0.235063
Maximum accepted packet rate = 0.2525 (at node 7)
Minimum injected flit rate = 0.1655 (at node 11)
Average injected flit rate = 0.23575
Maximum injected flit rate = 0.332 (at node 2)
Minimum accepted flit rate = 0.208 (at node 4)
Average accepted flit rate = 0.235063
Maximum accepted flit rate = 0.2525 (at node 7)
Total number of injected packets = 7544
Total number of injected flits = 7544
Average injected packet length = 1
Total number of accepted packets = 7522
Total number of accepted flits = 7522
Average accepted packet length = 1
Total in-flight flits = 425 (425 measured)
===== Time: 6000 =====
Class 0:
Minimum packet latency = 8
Average packet latency = 1191.56
Maximum packet latency = 3276
Minimum network latency = 9
Average network latency = 104.038
Maximum network latency = 245
Slowest packet = 11569
Minimum flit latency = 9
Average flit latency = 104.461
Maximum flit latency = 275
Slowest flit = 11457
Minimum fragmentation = 0
Average fragmentation = 0
Maximum fragmentation = 0
Minimum injected packet rate = 0.166 (at node 9)
Average injected packet rate = 0.238063
Maximum injected packet rate = 0.335667 (at node 2)
Minimum accepted packet rate = 0.216667 (at node 4)
Average accepted packet rate = 0.237563
Maximum accepted packet rate = 0.249 (at node 15)
Minimum injected flit rate = 0.166 (at node 9)
Average injected flit rate = 0.238063
Maximum injected flit rate = 0.335667 (at node 2)
Minimum accepted flit rate = 0.216667 (at node 4)
Average accepted flit rate = 0.237563
Maximum accepted flit rate = 0.249 (at node 15)
Total number of injected packets = 11427
Total number of injected flits = 11427
Average injected packet length = 1
Total number of accepted packets = 11403
Total number of accepted flits = 11403
Average accepted packet length = 1
Total in-flight flits = 429 (429 measured)
Draining remaining packets ...
Class 0:
Remaining flits: 22348 22378 22395 22420 22427 22432 22453 22486 22487 22489 [...] (401 flits)
Measured flits: 22348 22378 22395 22420 22427 22432 22453 22486 22487 22489 [...] (401 flits)
Class 0:
Remaining flits: 22395 22420 22427 22453 22486 22487 22489 22490 22496 22497 [...] (368 flits)
Measured flits: 22395 22420 22427 22453 22486 22487 22489 22490 22496 22497 [...] (368 flits)
Class 0:
Remaining flits: 22395 22420 22453 22487 22529 22548 22552 22553 22555 22561 [...] (314 flits)
Measured flits: 22395 22420 22453 22487 22529 22548 22552 22553 22555 22561 [...] (314 flits)
Class 0:
Remaining flits: 22453 22487 22529 22552 22553 22580 22588 22596 22600 22603 [...] (279 flits)
Measured flits: 22453 22487 22529 22552 22553 22580 22588 22596 22600 22603 [...] (279 flits)
Class 0:
Remaining flits: 22453 22487 22588 22596 22600 22612 22643 22653 22664 22683 [...] (240 flits)
Measured flits: 22453 22487 22588 22596 22600 22612 22643 22653 22664 22683 [...] (240 flits)
Class 0:
Remaining flits: 22453 22487 22600 22653 22683 22691 22700 22702 22704 22712 [...] (191 flits)
Measured flits: 22453 22487 22600 22653 22683 22691 22700 22702 22704 22712 [...] (191 flits)
Class 0:
Remaining flits: 22453 22487 22683 22691 22700 22712 22723 22726 22730 22738 [...] (156 flits)
Measured flits: 22453 22487 22683 22691 22700 22712 22723 22726 22730 22738 [...] (156 flits)
Class 0:
Remaining flits: 22487 22683 22723 22726 22742 22745 22746 22749 22769 22770 [...] (123 flits)
Measured flits: 22487 22683 22723 22726 22742 22745 22746 22749 22769 22770 [...] (123 flits)
Class 0:
Remaining flits: 22487 22683 22749 22770 22776 22784 22785 22786 22794 22795 [...] (93 flits)
Measured flits: 22487 22683 22749 22770 22776 22784 22785 22786 22794 22795 [...] (93 flits)
Class 0:
Remaining flits: 22683 22749 22770 22776 22784 22798 22826 22833 22839 22842 [...] (70 flits)
Measured flits: 22683 22749 22770 22776 22784 22798 22826 22833 22839 22842 [...] (70 flits)
Class 0:
Remaining flits: 22749 22770 22776 22798 22851 22852 22855 22888 22898 22912 [...] (44 flits)
Measured flits: 22749 22770 22776 22798 22851 22852 22855 22888 22898 22912 [...] (44 flits)
Class 0:
Remaining flits: 22749 22770 22798 22852 22855 22888 22912 22916 22930 22931 [...] (35 flits)
Measured flits: 22749 22770 22798 22852 22855 22888 22912 22916 22930 22931 [...] (35 flits)
Class 0:
Remaining flits: 22770 22888 22916 22958 22959 22961 22962 22964 22966 22973 [...] (20 flits)
Measured flits: 22770 22888 22916 22958 22959 22961 22962 22964 22966 22973 [...] (20 flits)
Class 0:
Remaining flits: 22770 22916 22958 22977 22978 22986 22987 22992 22996 (9 flits)
Measured flits: 22770 22916 22958 22977 22978 22986 22987 22992 22996 (9 flits)
Class 0:
Remaining flits: 22770 22916 22958 22977 22978 22987 22992 22996 (8 flits)
Measured flits: 22770 22916 22958 22977 22978 22987 22992 22996 (8 flits)
Class 0:
Remaining flits: 22770 22916 22977 22978 22987 22992 22996 (7 flits)
Measured flits: 22770 22916 22977 22978 22987 22992 22996 (7 flits)
Class 0:
Remaining flits: 22770 22916 22977 22978 22987 22992 22996 (7 flits)
Measured flits: 22770 22916 22977 22978 22987 22992 22996 (7 flits)
Class 0:
Remaining flits: 22770 22916 22977 22978 22987 22992 22996 (7 flits)
Measured flits: 22770 22916 22977 22978 22987 22992 22996 (7 flits)
Class 0:
Remaining flits: 22770 22916 22977 22978 22987 22992 22996 (7 flits)
Measured flits: 22770 22916 22977 22978 22987 22992 22996 (7 flits)
Class 0:
Remaining flits: 22770 22916 22977 22978 22987 22992 22996 (7 flits)
Measured flits: 22770 22916 22977 22978 22987 22992 22996 (7 flits)
Class 0:
Remaining flits: 22770 22916 22977 22978 22987 22992 22996 (7 flits)
Measured flits: 22770 22916 22977 22978 22987 22992 22996 (7 flits)
Class 0:
Remaining flits: 22770 22916 22977 22978 22987 22992 22996 (7 flits)
Measured flits: 22770 22916 22977 22978 22987 22992 22996 (7 flits)
Class 0:
Remaining flits: 22770 22916 22977 22978 22987 22992 22996 (7 flits)
Measured flits: 22770 22916 22977 22978 22987 22992 22996 (7 flits)
Class 0:
Remaining flits: 22770 22916 22977 22978 22987 22992 22996 (7 flits)
Measured flits: 22770 22916 22977 22978 22987 22992 22996 (7 flits)
Class 0:
Remaining flits: 22770 22916 22977 22978 22987 22992 22996 (7 flits)
Measured flits: 22770 22916 22977 22978 22987 22992 22996 (7 flits)
Class 0:
Remaining flits: 22770 22916 22977 22978 22987 22992 22996 (7 flits)
Measured flits: 22770 22916 22977 22978 22987 22992 22996 (7 flits)
Class 0:
Remaining flits: 22770 22916 22977 22978 22987 22992 22996 (7 flits)
Measured flits: 22770 22916 22977 22978 22987 22992 22996 (7 flits)
Class 0:
Remaining flits: 22770 22916 22977 22978 22987 22992 22996 (7 flits)
Measured flits: 22770 22916 22977 22978 22987 22992 22996 (7 flits)
Class 0:
Remaining flits: 22770 22916 22977 22978 22987 22992 22996 (7 flits)
Measured flits: 22770 22916 22977 22978 22987 22992 22996 (7 flits)
Class 0:
Remaining flits: 22770 22916 22977 22978 22987 22992 22996 (7 flits)
Measured flits: 22770 22916 22977 22978 22987 22992 22996 (7 flits)
Class 0:
Remaining flits: 22770 22916 22977 22978 22987 22992 22996 (7 flits)
Measured flits: 22770 22916 22977 22978 22987 22992 22996 (7 flits)
Class 0:
Remaining flits: 22770 22916 22977 22978 22987 22992 22996 (7 flits)
Measured flits: 22770 22916 22977 22978 22987 22992 22996 (7 flits)
Class 0:
Remaining flits: 22770 22916 22977 22978 22987 22992 22996 (7 flits)
Measured flits: 22770 22916 22977 22978 22987 22992 22996 (7 flits)
Class 0:
Remaining flits: 22770 22916 22977 22978 22987 22992 22996 (7 flits)
Measured flits: 22770 22916 22977 22978 22987 22992 22996 (7 flits)
Class 0:
Remaining flits: 22770 22916 22977 22978 22987 22992 22996 (7 flits)
Measured flits: 22770 22916 22977 22978 22987 22992 22996 (7 flits)
Class 0:
Remaining flits: 22770 22916 22977 22978 22987 22992 22996 (7 flits)
Measured flits: 22770 22916 22977 22978 22987 22992 22996 (7 flits)
Class 0:
Remaining flits: 22770 22916 22977 22978 22987 22992 22996 (7 flits)
Measured flits: 22770 22916 22977 22978 22987 22992 22996 (7 flits)
Class 0:
Remaining flits: 22770 22916 22977 22978 22987 22992 22996 (7 flits)
Measured flits: 22770 22916 22977 22978 22987 22992 22996 (7 flits)
Class 0:
Remaining flits: 22770 22916 22977 22978 22987 22992 22996 (7 flits)
Measured flits: 22770 22916 22977 22978 22987 22992 22996 (7 flits)
Class 0:
Remaining flits: 22770 22916 22977 22978 22987 22992 22996 (7 flits)
Measured flits: 22770 22916 22977 22978 22987 22992 22996 (7 flits)
Class 0:
Remaining flits: 22770 22916 22977 22978 22987 22992 22996 (7 flits)
Measured flits: 22770 22916 22977 22978 22987 22992 22996 (7 flits)
Class 0:
Remaining flits: 22770 22916 22977 22978 22987 22992 22996 (7 flits)
Measured flits: 22770 22916 22977 22978 22987 22992 22996 (7 flits)
Class 0:
Remaining flits: 22770 22916 22977 22978 22987 22992 22996 (7 flits)
Measured flits: 22770 22916 22977 22978 22987 22992 22996 (7 flits)
Class 0:
Remaining flits: 22770 22916 22977 22978 22987 22992 22996 (7 flits)
Measured flits: 22770 22916 22977 22978 22987 22992 22996 (7 flits)
Class 0:
Remaining flits: 22770 22916 22977 22978 22987 22992 22996 (7 flits)
Measured flits: 22770 22916 22977 22978 22987 22992 22996 (7 flits)
Class 0:
Remaining flits: 22770 22916 22977 22978 22987 22992 22996 (7 flits)
Measured flits: 22770 22916 22977 22978 22987 22992 22996 (7 flits)
Class 0:
Remaining flits: 22770 22916 22977 22978 22987 22992 22996 (7 flits)
Measured flits: 22770 22916 22977 22978 22987 22992 22996 (7 flits)
Class 0:
Remaining flits: 22770 22916 22977 22978 22987 22992 22996 (7 flits)
Measured flits: 22770 22916 22977 22978 22987 22992 22996 (7 flits)
Class 0:
Remaining flits: 22770 22916 22977 22978 22987 22992 22996 (7 flits)
Measured flits: 22770 22916 22977 22978 22987 22992 22996 (7 flits)
Class 0:
Remaining flits: 22770 22916 22977 22978 22987 22992 22996 (7 flits)
Measured flits: 22770 22916 22977 22978 22987 22992 22996 (7 flits)
Class 0:
Remaining flits: 22770 22916 22977 22978 22987 22992 22996 (7 flits)
Measured flits: 22770 22916 22977 22978 22987 22992 22996 (7 flits)
Class 0:
Remaining flits: 22770 22916 22977 22978 22987 22992 22996 (7 flits)
Measured flits: 22770 22916 22977 22978 22987 22992 22996 (7 flits)
Class 0:
Remaining flits: 22770 22916 22977 22978 22987 22992 22996 (7 flits)
Measured flits: 22770 22916 22977 22978 22987 22992 22996 (7 flits)
Class 0:
Remaining flits: 22770 22916 22977 22978 22987 22992 22996 (7 flits)
Measured flits: 22770 22916 22977 22978 22987 22992 22996 (7 flits)
Class 0:
Remaining flits: 22770 22916 22977 22978 22987 22992 22996 (7 flits)
Measured flits: 22770 22916 22977 22978 22987 22992 22996 (7 flits)
Class 0:
Remaining flits: 22770 22916 22977 22978 22987 22992 22996 (7 flits)
Measured flits: 22770 22916 22977 22978 22987 22992 22996 (7 flits)
Class 0:
Remaining flits: 22770 22916 22977 22978 22987 22992 22996 (7 flits)
Measured flits: 22770 22916 22977 22978 22987 22992 22996 (7 flits)
Class 0:
Remaining flits: 22770 22916 22977 22978 22987 22992 22996 (7 flits)
Measured flits: 22770 22916 22977 22978 22987 22992 22996 (7 flits)
Class 0:
Remaining flits: 22770 22916 22977 22978 22987 22992 22996 (7 flits)
Measured flits: 22770 22916 22977 22978 22987 22992 22996 (7 flits)
Class 0:
Remaining flits: 22770 22916 22977 22978 22987 22992 22996 (7 flits)
Measured flits: 22770 22916 22977 22978 22987 22992 22996 (7 flits)
Class 0:
Remaining flits: 22770 22916 22977 22978 22987 22992 22996 (7 flits)
Measured flits: 22770 22916 22977 22978 22987 22992 22996 (7 flits)
Class 0:
Remaining flits: 22770 22916 22977 22978 22987 22992 22996 (7 flits)
Measured flits: 22770 22916 22977 22978 22987 22992 22996 (7 flits)
Class 0:
Remaining flits: 22770 22916 22977 22978 22987 22992 22996 (7 flits)
Measured flits: 22770 22916 22977 22978 22987 22992 22996 (7 flits)
Class 0:
Remaining flits: 22770 22916 22977 22978 22987 22992 22996 (7 flits)
Measured flits: 22770 22916 22977 22978 22987 22992 22996 (7 flits)
Class 0:
Remaining flits: 22770 22916 22977 22978 22987 22992 22996 (7 flits)
Measured flits: 22770 22916 22977 22978 22987 22992 22996 (7 flits)
Class 0:
Remaining flits: 22770 22916 22977 22978 22987 22992 22996 (7 flits)
Measured flits: 22770 22916 22977 22978 22987 22992 22996 (7 flits)
Class 0:
Remaining flits: 22770 22916 22977 22978 22987 22992 22996 (7 flits)
Measured flits: 22770 22916 22977 22978 22987 22992 22996 (7 flits)
Class 0:
Remaining flits: 22770 22916 22977 22978 22987 22992 22996 (7 flits)
Measured flits: 22770 22916 22977 22978 22987 22992 22996 (7 flits)
Class 0:
Remaining flits: 22770 22916 22977 22978 22987 22992 22996 (7 flits)
Measured flits: 22770 22916 22977 22978 22987 22992 22996 (7 flits)
Class 0:
Remaining flits: 22770 22916 22977 22978 22987 22992 22996 (7 flits)
Measured flits: 22770 22916 22977 22978 22987 22992 22996 (7 flits)
Class 0:
Remaining flits: 22770 22916 22977 22978 22987 22992 22996 (7 flits)
Measured flits: 22770 22916 22977 22978 22987 22992 22996 (7 flits)
Class 0:
Remaining flits: 22770 22916 22977 22978 22987 22992 22996 (7 flits)
Measured flits: 22770 22916 22977 22978 22987 22992 22996 (7 flits)
Class 0:
Remaining flits: 22770 22916 22977 22978 22987 22992 22996 (7 flits)
Measured flits: 22770 22916 22977 22978 22987 22992 22996 (7 flits)
Class 0:
Remaining flits: 22770 22916 22977 22978 22987 22992 22996 (7 flits)
Measured flits: 22770 22916 22977 22978 22987 22992 22996 (7 flits)
Class 0:
Remaining flits: 22770 22916 22977 22978 22987 22992 22996 (7 flits)
Measured flits: 22770 22916 22977 22978 22987 22992 22996 (7 flits)
Class 0:
Remaining flits: 22770 22916 22977 22978 22987 22992 22996 (7 flits)
Measured flits: 22770 22916 22977 22978 22987 22992 22996 (7 flits)
Class 0:
Remaining flits: 22770 22916 22977 22978 22987 22992 22996 (7 flits)
Measured flits: 22770 22916 22977 22978 22987 22992 22996 (7 flits)
Class 0:
Remaining flits: 22770 22916 22977 22978 22987 22992 22996 (7 flits)
Measured flits: 22770 22916 22977 22978 22987 22992 22996 (7 flits)
Class 0:
Remaining flits: 22770 22916 22977 22978 22987 22992 22996 (7 flits)
Measured flits: 22770 22916 22977 22978 22987 22992 22996 (7 flits)
Class 0:
Remaining flits: 22770 22916 22977 22978 22987 22992 22996 (7 flits)
Measured flits: 22770 22916 22977 22978 22987 22992 22996 (7 flits)
Class 0:
Remaining flits: 22770 22916 22977 22978 22987 22992 22996 (7 flits)
Measured flits: 22770 22916 22977 22978 22987 22992 22996 (7 flits)
Class 0:
Remaining flits: 22770 22916 22977 22978 22987 22992 22996 (7 flits)
Measured flits: 22770 22916 22977 22978 22987 22992 22996 (7 flits)
Class 0:
Remaining flits: 22770 22916 22977 22978 22987 22992 22996 (7 flits)
Measured flits: 22770 22916 22977 22978 22987 22992 22996 (7 flits)
Class 0:
Remaining flits: 22770 22916 22977 22978 22987 22992 22996 (7 flits)
Measured flits: 22770 22916 22977 22978 22987 22992 22996 (7 flits)
Class 0:
Remaining flits: 22770 22916 22977 22978 22987 22992 22996 (7 flits)
Measured flits: 22770 22916 22977 22978 22987 22992 22996 (7 flits)
Class 0:
Remaining flits: 22770 22916 22977 22978 22987 22992 22996 (7 flits)
Measured flits: 22770 22916 22977 22978 22987 22992 22996 (7 flits)
Class 0:
Remaining flits: 22770 22916 22977 22978 22987 22992 22996 (7 flits)
Measured flits: 22770 22916 22977 22978 22987 22992 22996 (7 flits)
Class 0:
Remaining flits: 22770 22916 22977 22978 22987 22992 22996 (7 flits)
Measured flits: 22770 22916 22977 22978 22987 22992 22996 (7 flits)
Class 0:
Remaining flits: 22770 22916 22977 22978 22987 22992 22996 (7 flits)
Measured flits: 22770 22916 22977 22978 22987 22992 22996 (7 flits)
Class 0:
Remaining flits: 22770 22916 22977 22978 22987 22992 22996 (7 flits)
Measured flits: 22770 22916 22977 22978 22987 22992 22996 (7 flits)
Class 0:
Remaining flits: 22770 22916 22977 22978 22987 22992 22996 (7 flits)
Measured flits: 22770 22916 22977 22978 22987 22992 22996 (7 flits)
Class 0:
Remaining flits: 22770 22916 22977 22978 22987 22992 22996 (7 flits)
Measured flits: 22770 22916 22977 22978 22987 22992 22996 (7 flits)
Class 0:
Remaining flits: 22770 22916 22977 22978 22987 22992 22996 (7 flits)
Measured flits: 22770 22916 22977 22978 22987 22992 22996 (7 flits)
Class 0:
Remaining flits: 22770 22916 22977 22978 22987 22992 22996 (7 flits)
Measured flits: 22770 22916 22977 22978 22987 22992 22996 (7 flits)
Class 0:
Remaining flits: 22770 22916 22977 22978 22987 22992 22996 (7 flits)
Measured flits: 22770 22916 22977 22978 22987 22992 22996 (7 flits)
Class 0:
Remaining flits: 22770 22916 22977 22978 22987 22992 22996 (7 flits)
Measured flits: 22770 22916 22977 22978 22987 22992 22996 (7 flits)
Class 0:
Remaining flits: 22770 22916 22977 22978 22987 22992 22996 (7 flits)
Measured flits: 22770 22916 22977 22978 22987 22992 22996 (7 flits)
Class 0:
Remaining flits: 22770 22916 22977 22978 22987 22992 22996 (7 flits)
Measured flits: 22770 22916 22977 22978 22987 22992 22996 (7 flits)
Class 0:
Remaining flits: 22770 22916 22977 22978 22987 22992 22996 (7 flits)
Measured flits: 22770 22916 22977 22978 22987 22992 22996 (7 flits)
Class 0:
Remaining flits: 22770 22916 22977 22978 22987 22992 22996 (7 flits)
Measured flits: 22770 22916 22977 22978 22987 22992 22996 (7 flits)
Class 0:
Remaining flits: 22770 22916 22977 22978 22987 22992 22996 (7 flits)
Measured flits: 22770 22916 22977 22978 22987 22992 22996 (7 flits)
Time taken is 7000 cycles
====== Traffic class 0 ======

Total number of flits generated = 22998, changed lanes = 22541
Overall minimum packet latency = 8 (1 samples)
Overall average packet latency = 1211.17 (1 samples)
Overall maximum packet latency = 3356 (1 samples)
Overall minimum network latency = 9 (1 samples)
Overall average network latency = 104.459 (1 samples)
Overall maximum network latency = 245 (1 samples)
Overall minimum flit latency = 9 (1 samples)
Overall average flit latency = 104.853 (1 samples)
Overall maximum flit latency = 275 (1 samples)
Overall minimum fragmentation = 0 (1 samples)
Overall average fragmentation = 0 (1 samples)
Overall maximum fragmentation = 0 (1 samples)
Overall minimum injected packet rate = 0.166 (1 samples)
Overall average injected packet rate = 0.238063 (1 samples)
Overall maximum injected packet rate = 0.335667 (1 samples)
Overall minimum accepted packet rate = 0.216667 (1 samples)
Overall average accepted packet rate = 0.237563 (1 samples)
Overall maximum accepted packet rate = 0.249 (1 samples)
Overall minimum injected flit rate = 0.166 (1 samples)
Overall average injected flit rate = 0.238063 (1 samples)
Overall maximum injected flit rate = 0.335667 (1 samples)
Overall minimum accepted flit rate = 0.216667 (1 samples)
Overall average accepted flit rate = 0.237563 (1 samples)
Overall maximum accepted flit rate = 0.249 (1 samples)
Overall average injected packet size = 1 (1 samples)
Overall average accepted packet size = 1 (1 samples)
Overall average hops = 3.00525 (1 samples)
Overall throughput of the network (flits/cycle) = 7.66367
Overall throughput of the network (packets/cycle) = 7.66367
Total run time 6395.38
