make: Nothing to be done for 'all'.
Master: Running timer....
Master: Running SRC....
BEGIN Configuration File: ./examples/bitrev
// Topology

topology = torus;
k = 4;
n = 2;

// Routing
routing_function = dim_order;

// Flow control
num_vcs     = 4;
vc_buf_size = 4;
wait_for_tail_credit = 0;

// Router architecture
vc_allocator = islip;
sw_allocator = islip;
alloc_iters  = 1;

credit_delay   = 1;
routing_delay  = 1;
vc_alloc_delay = 1;
sw_alloc_delay = 1;

input_speedup     = 1;
output_speedup    = 1;
internal_speedup  = 1.0;

vc_busy_when_full = 0;

// Traffic
traffic = uniform;
packet_size = 1;

// Simulation
sim_type = throughput;

injection_rate = 0.09;

END Configuration File: ./examples/bitrev
===== Time: 1000 =====
Class 0:
Minimum packet latency = 7
Average packet latency = 30.5757
Maximum packet latency = 131
Minimum network latency = 8
Average network latency = 31.5757
Maximum network latency = 132
Slowest packet = 554
Minimum flit latency = 8
Average flit latency = 31.5757
Maximum flit latency = 132
Slowest flit = 554
Minimum fragmentation = 0
Average fragmentation = 0
Maximum fragmentation = 0
Minimum injected packet rate = 0.074 (at node 8)
Average injected packet rate = 0.085875
Maximum injected packet rate = 0.097 (at node 4)
Minimum accepted packet rate = 0.069 (at node 14)
Average accepted packet rate = 0.083375
Maximum accepted packet rate = 0.096 (at node 1)
Minimum injected flit rate = 0.074 (at node 8)
Average injected flit rate = 0.085875
Maximum injected flit rate = 0.097 (at node 4)
Minimum accepted flit rate = 0.069 (at node 14)
Average accepted flit rate = 0.083375
Maximum accepted flit rate = 0.096 (at node 1)
Total number of injected packets = 1374
Total number of injected flits = 1374
Average injected packet length = 1
Total number of accepted packets = 1334
Total number of accepted flits = 1334
Average accepted packet length = 1
Total in-flight flits = 40 (0 measured)
===== Time: 2000 =====
Class 0:
Minimum packet latency = 7
Average packet latency = 30.7844
Maximum packet latency = 131
Minimum network latency = 8
Average network latency = 31.7844
Maximum network latency = 132
Slowest packet = 554
Minimum flit latency = 8
Average flit latency = 31.7844
Maximum flit latency = 132
Slowest flit = 554
Minimum fragmentation = 0
Average fragmentation = 0
Maximum fragmentation = 0
Minimum injected packet rate = 0.0765 (at node 7)
Average injected packet rate = 0.0856563
Maximum injected packet rate = 0.0945 (at node 4)
Minimum accepted packet rate = 0.074 (at node 14)
Average accepted packet rate = 0.0839375
Maximum accepted packet rate = 0.094 (at node 1)
Minimum injected flit rate = 0.0765 (at node 7)
Average injected flit rate = 0.0856563
Maximum injected flit rate = 0.0945 (at node 4)
Minimum accepted flit rate = 0.074 (at node 14)
Average accepted flit rate = 0.0839375
Maximum accepted flit rate = 0.094 (at node 1)
Total number of injected packets = 2741
Total number of injected flits = 2741
Average injected packet length = 1
Total number of accepted packets = 2686
Total number of accepted flits = 2686
Average accepted packet length = 1
Total in-flight flits = 55 (0 measured)
===== Time: 3000 =====
Class 0:
Minimum packet latency = 7
Average packet latency = 30.8249
Maximum packet latency = 144
Minimum network latency = 8
Average network latency = 31.8249
Maximum network latency = 145
Slowest packet = 3758
Minimum flit latency = 8
Average flit latency = 31.8249
Maximum flit latency = 145
Slowest flit = 3758
Minimum fragmentation = 0
Average fragmentation = 0
Maximum fragmentation = 0
Minimum injected packet rate = 0.084 (at node 0)
Average injected packet rate = 0.092375
Maximum injected packet rate = 0.105 (at node 6)
Minimum accepted packet rate = 0.08 (at node 14)
Average accepted packet rate = 0.0928125
Maximum accepted packet rate = 0.111 (at node 11)
Minimum injected flit rate = 0.084 (at node 0)
Average injected flit rate = 0.092375
Maximum injected flit rate = 0.105 (at node 6)
Minimum accepted flit rate = 0.08 (at node 14)
Average accepted flit rate = 0.0928125
Maximum accepted flit rate = 0.111 (at node 11)
Total number of injected packets = 1478
Total number of injected flits = 1478
Average injected packet length = 1
Total number of accepted packets = 1485
Total number of accepted flits = 1485
Average accepted packet length = 1
Total in-flight flits = 48 (0 measured)
===== Time: 4000 =====
Class 0:
Minimum packet latency = 7
Average packet latency = 32.4888
Maximum packet latency = 135
Minimum network latency = 8
Average network latency = 33.4888
Maximum network latency = 136
Slowest packet = 5027
Minimum flit latency = 8
Average flit latency = 33.5785
Maximum flit latency = 136
Slowest flit = 5027
Minimum fragmentation = 0
Average fragmentation = 0
Maximum fragmentation = 0
Minimum injected packet rate = 0.068 (at node 0)
Average injected packet rate = 0.0895
Maximum injected packet rate = 0.108 (at node 15)
Minimum accepted packet rate = 0.079 (at node 15)
Average accepted packet rate = 0.0895625
Maximum accepted packet rate = 0.102 (at node 2)
Minimum injected flit rate = 0.068 (at node 0)
Average injected flit rate = 0.0895
Maximum injected flit rate = 0.108 (at node 15)
Minimum accepted flit rate = 0.079 (at node 15)
Average accepted flit rate = 0.0895625
Maximum accepted flit rate = 0.102 (at node 2)
Total number of injected packets = 1432
Total number of injected flits = 1432
Average injected packet length = 1
Total number of accepted packets = 1433
Total number of accepted flits = 1433
Average accepted packet length = 1
Total in-flight flits = 47 (47 measured)
===== Time: 5000 =====
Class 0:
Minimum packet latency = 7
Average packet latency = 32.0161
Maximum packet latency = 256
Minimum network latency = 8
Average network latency = 33.0161
Maximum network latency = 257
Slowest packet = 5537
Minimum flit latency = 8
Average flit latency = 33.0693
Maximum flit latency = 257
Slowest flit = 5537
Minimum fragmentation = 0
Average fragmentation = 0
Maximum fragmentation = 0
Minimum injected packet rate = 0.0785 (at node 3)
Average injected packet rate = 0.0887813
Maximum injected packet rate = 0.1055 (at node 15)
Minimum accepted packet rate = 0.078 (at node 4)
Average accepted packet rate = 0.0887813
Maximum accepted packet rate = 0.098 (at node 7)
Minimum injected flit rate = 0.0785 (at node 3)
Average injected flit rate = 0.0887813
Maximum injected flit rate = 0.1055 (at node 15)
Minimum accepted flit rate = 0.078 (at node 4)
Average accepted flit rate = 0.0887813
Maximum accepted flit rate = 0.098 (at node 7)
Total number of injected packets = 2841
Total number of injected flits = 2841
Average injected packet length = 1
Total number of accepted packets = 2841
Total number of accepted flits = 2841
Average accepted packet length = 1
Total in-flight flits = 48 (48 measured)
===== Time: 6000 =====
Class 0:
Minimum packet latency = 7
Average packet latency = 31.5068
Maximum packet latency = 256
Minimum network latency = 8
Average network latency = 32.5068
Maximum network latency = 257
Slowest packet = 5537
Minimum flit latency = 8
Average flit latency = 32.5477
Maximum flit latency = 257
Slowest flit = 5537
Minimum fragmentation = 0
Average fragmentation = 0
Maximum fragmentation = 0
Minimum injected packet rate = 0.0836667 (at node 3)
Average injected packet rate = 0.0892292
Maximum injected packet rate = 0.104 (at node 15)
Minimum accepted packet rate = 0.0813333 (at node 4)
Average accepted packet rate = 0.0894583
Maximum accepted packet rate = 0.100333 (at node 9)
Minimum injected flit rate = 0.0836667 (at node 3)
Average injected flit rate = 0.0892292
Maximum injected flit rate = 0.104 (at node 15)
Minimum accepted flit rate = 0.0813333 (at node 4)
Average accepted flit rate = 0.0894583
Maximum accepted flit rate = 0.100333 (at node 9)
Total number of injected packets = 4283
Total number of injected flits = 4283
Average injected packet length = 1
Total number of accepted packets = 4294
Total number of accepted flits = 4294
Average accepted packet length = 1
Total in-flight flits = 37 (37 measured)
Draining remaining packets ...
Class 0:
Remaining flits: 8451 8458 8466 8470 8474 8481 8482 8483 8485 8486 [...] (25 flits)
Measured flits: 8451 8458 8466 8470 8474 8481 8482 8483 8485 8486 [...] (25 flits)
Class 0:
Remaining flits: 8451 8458 8470 8474 8482 8485 8488 8489 8490 8491 [...] (19 flits)
Measured flits: 8451 8458 8470 8474 8482 8485 8488 8489 8490 8491 [...] (19 flits)
Class 0:
Remaining flits: 8451 8458 8474 8485 8489 8490 8491 8492 8494 8495 [...] (14 flits)
Measured flits: 8451 8458 8474 8485 8489 8490 8491 8492 8494 8495 [...] (14 flits)
Class 0:
Remaining flits: 8458 8495 (2 flits)
Measured flits: 8458 8495 (2 flits)
Class 0:
Remaining flits: 8458 8495 (2 flits)
Measured flits: 8458 8495 (2 flits)
Class 0:
Remaining flits: 8458 8495 (2 flits)
Measured flits: 8458 8495 (2 flits)
Class 0:
Remaining flits: 8458 8495 (2 flits)
Measured flits: 8458 8495 (2 flits)
Class 0:
Remaining flits: 8458 8495 (2 flits)
Measured flits: 8458 8495 (2 flits)
Class 0:
Remaining flits: 8458 8495 (2 flits)
Measured flits: 8458 8495 (2 flits)
Class 0:
Remaining flits: 8458 8495 (2 flits)
Measured flits: 8458 8495 (2 flits)
Class 0:
Remaining flits: 8458 8495 (2 flits)
Measured flits: 8458 8495 (2 flits)
Class 0:
Remaining flits: 8458 8495 (2 flits)
Measured flits: 8458 8495 (2 flits)
Class 0:
Remaining flits: 8458 8495 (2 flits)
Measured flits: 8458 8495 (2 flits)
Class 0:
Remaining flits: 8458 8495 (2 flits)
Measured flits: 8458 8495 (2 flits)
Class 0:
Remaining flits: 8458 8495 (2 flits)
Measured flits: 8458 8495 (2 flits)
Class 0:
Remaining flits: 8458 8495 (2 flits)
Measured flits: 8458 8495 (2 flits)
Class 0:
Remaining flits: 8458 8495 (2 flits)
Measured flits: 8458 8495 (2 flits)
Class 0:
Remaining flits: 8458 8495 (2 flits)
Measured flits: 8458 8495 (2 flits)
Class 0:
Remaining flits: 8458 8495 (2 flits)
Measured flits: 8458 8495 (2 flits)
Class 0:
Remaining flits: 8458 8495 (2 flits)
Measured flits: 8458 8495 (2 flits)
Class 0:
Remaining flits: 8458 8495 (2 flits)
Measured flits: 8458 8495 (2 flits)
Class 0:
Remaining flits: 8458 8495 (2 flits)
Measured flits: 8458 8495 (2 flits)
Class 0:
Remaining flits: 8458 8495 (2 flits)
Measured flits: 8458 8495 (2 flits)
Class 0:
Remaining flits: 8458 8495 (2 flits)
Measured flits: 8458 8495 (2 flits)
Class 0:
Remaining flits: 8458 8495 (2 flits)
Measured flits: 8458 8495 (2 flits)
Class 0:
Remaining flits: 8458 8495 (2 flits)
Measured flits: 8458 8495 (2 flits)
Class 0:
Remaining flits: 8458 8495 (2 flits)
Measured flits: 8458 8495 (2 flits)
Class 0:
Remaining flits: 8458 8495 (2 flits)
Measured flits: 8458 8495 (2 flits)
Class 0:
Remaining flits: 8458 8495 (2 flits)
Measured flits: 8458 8495 (2 flits)
Class 0:
Remaining flits: 8458 8495 (2 flits)
Measured flits: 8458 8495 (2 flits)
Class 0:
Remaining flits: 8458 8495 (2 flits)
Measured flits: 8458 8495 (2 flits)
Class 0:
Remaining flits: 8458 8495 (2 flits)
Measured flits: 8458 8495 (2 flits)
Class 0:
Remaining flits: 8458 8495 (2 flits)
Measured flits: 8458 8495 (2 flits)
Class 0:
Remaining flits: 8458 8495 (2 flits)
Measured flits: 8458 8495 (2 flits)
Class 0:
Remaining flits: 8458 8495 (2 flits)
Measured flits: 8458 8495 (2 flits)
Class 0:
Remaining flits: 8458 8495 (2 flits)
Measured flits: 8458 8495 (2 flits)
Class 0:
Remaining flits: 8458 8495 (2 flits)
Measured flits: 8458 8495 (2 flits)
Class 0:
Remaining flits: 8458 8495 (2 flits)
Measured flits: 8458 8495 (2 flits)
Class 0:
Remaining flits: 8458 8495 (2 flits)
Measured flits: 8458 8495 (2 flits)
Class 0:
Remaining flits: 8458 8495 (2 flits)
Measured flits: 8458 8495 (2 flits)
Class 0:
Remaining flits: 8458 8495 (2 flits)
Measured flits: 8458 8495 (2 flits)
Class 0:
Remaining flits: 8458 8495 (2 flits)
Measured flits: 8458 8495 (2 flits)
Class 0:
Remaining flits: 8458 8495 (2 flits)
Measured flits: 8458 8495 (2 flits)
Class 0:
Remaining flits: 8458 8495 (2 flits)
Measured flits: 8458 8495 (2 flits)
Class 0:
Remaining flits: 8458 8495 (2 flits)
Measured flits: 8458 8495 (2 flits)
Class 0:
Remaining flits: 8458 8495 (2 flits)
Measured flits: 8458 8495 (2 flits)
Class 0:
Remaining flits: 8458 8495 (2 flits)
Measured flits: 8458 8495 (2 flits)
Class 0:
Remaining flits: 8458 8495 (2 flits)
Measured flits: 8458 8495 (2 flits)
Class 0:
Remaining flits: 8458 8495 (2 flits)
Measured flits: 8458 8495 (2 flits)
Class 0:
Remaining flits: 8458 8495 (2 flits)
Measured flits: 8458 8495 (2 flits)
Class 0:
Remaining flits: 8458 8495 (2 flits)
Measured flits: 8458 8495 (2 flits)
Class 0:
Remaining flits: 8458 8495 (2 flits)
Measured flits: 8458 8495 (2 flits)
Class 0:
Remaining flits: 8458 8495 (2 flits)
Measured flits: 8458 8495 (2 flits)
Class 0:
Remaining flits: 8458 8495 (2 flits)
Measured flits: 8458 8495 (2 flits)
Class 0:
Remaining flits: 8458 8495 (2 flits)
Measured flits: 8458 8495 (2 flits)
Class 0:
Remaining flits: 8458 8495 (2 flits)
Measured flits: 8458 8495 (2 flits)
Class 0:
Remaining flits: 8458 8495 (2 flits)
Measured flits: 8458 8495 (2 flits)
Class 0:
Remaining flits: 8458 8495 (2 flits)
Measured flits: 8458 8495 (2 flits)
Class 0:
Remaining flits: 8458 8495 (2 flits)
Measured flits: 8458 8495 (2 flits)
Class 0:
Remaining flits: 8458 8495 (2 flits)
Measured flits: 8458 8495 (2 flits)
Class 0:
Remaining flits: 8458 8495 (2 flits)
Measured flits: 8458 8495 (2 flits)
Class 0:
Remaining flits: 8458 8495 (2 flits)
Measured flits: 8458 8495 (2 flits)
Class 0:
Remaining flits: 8458 8495 (2 flits)
Measured flits: 8458 8495 (2 flits)
Class 0:
Remaining flits: 8458 8495 (2 flits)
Measured flits: 8458 8495 (2 flits)
Class 0:
Remaining flits: 8458 8495 (2 flits)
Measured flits: 8458 8495 (2 flits)
Class 0:
Remaining flits: 8458 8495 (2 flits)
Measured flits: 8458 8495 (2 flits)
Class 0:
Remaining flits: 8458 8495 (2 flits)
Measured flits: 8458 8495 (2 flits)
Class 0:
Remaining flits: 8458 8495 (2 flits)
Measured flits: 8458 8495 (2 flits)
Class 0:
Remaining flits: 8458 8495 (2 flits)
Measured flits: 8458 8495 (2 flits)
Class 0:
Remaining flits: 8458 8495 (2 flits)
Measured flits: 8458 8495 (2 flits)
Class 0:
Remaining flits: 8458 8495 (2 flits)
Measured flits: 8458 8495 (2 flits)
Class 0:
Remaining flits: 8458 8495 (2 flits)
Measured flits: 8458 8495 (2 flits)
Class 0:
Remaining flits: 8458 8495 (2 flits)
Measured flits: 8458 8495 (2 flits)
Class 0:
Remaining flits: 8458 8495 (2 flits)
Measured flits: 8458 8495 (2 flits)
Class 0:
Remaining flits: 8458 8495 (2 flits)
Measured flits: 8458 8495 (2 flits)
Class 0:
Remaining flits: 8458 8495 (2 flits)
Measured flits: 8458 8495 (2 flits)
Class 0:
Remaining flits: 8458 8495 (2 flits)
Measured flits: 8458 8495 (2 flits)
Class 0:
Remaining flits: 8458 8495 (2 flits)
Measured flits: 8458 8495 (2 flits)
Class 0:
Remaining flits: 8458 8495 (2 flits)
Measured flits: 8458 8495 (2 flits)
Class 0:
Remaining flits: 8458 8495 (2 flits)
Measured flits: 8458 8495 (2 flits)
Class 0:
Remaining flits: 8458 8495 (2 flits)
Measured flits: 8458 8495 (2 flits)
Class 0:
Remaining flits: 8458 8495 (2 flits)
Measured flits: 8458 8495 (2 flits)
Class 0:
Remaining flits: 8458 8495 (2 flits)
Measured flits: 8458 8495 (2 flits)
Class 0:
Remaining flits: 8458 8495 (2 flits)
Measured flits: 8458 8495 (2 flits)
Class 0:
Remaining flits: 8458 8495 (2 flits)
Measured flits: 8458 8495 (2 flits)
Class 0:
Remaining flits: 8458 8495 (2 flits)
Measured flits: 8458 8495 (2 flits)
Class 0:
Remaining flits: 8458 8495 (2 flits)
Measured flits: 8458 8495 (2 flits)
Class 0:
Remaining flits: 8458 8495 (2 flits)
Measured flits: 8458 8495 (2 flits)
Class 0:
Remaining flits: 8458 8495 (2 flits)
Measured flits: 8458 8495 (2 flits)
Class 0:
Remaining flits: 8458 8495 (2 flits)
Measured flits: 8458 8495 (2 flits)
Class 0:
Remaining flits: 8458 8495 (2 flits)
Measured flits: 8458 8495 (2 flits)
Class 0:
Remaining flits: 8458 8495 (2 flits)
Measured flits: 8458 8495 (2 flits)
Class 0:
Remaining flits: 8458 8495 (2 flits)
Measured flits: 8458 8495 (2 flits)
Class 0:
Remaining flits: 8458 8495 (2 flits)
Measured flits: 8458 8495 (2 flits)
Class 0:
Remaining flits: 8458 8495 (2 flits)
Measured flits: 8458 8495 (2 flits)
Class 0:
Remaining flits: 8458 8495 (2 flits)
Measured flits: 8458 8495 (2 flits)
Class 0:
Remaining flits: 8458 8495 (2 flits)
Measured flits: 8458 8495 (2 flits)
Class 0:
Remaining flits: 8458 8495 (2 flits)
Measured flits: 8458 8495 (2 flits)
Class 0:
Remaining flits: 8458 8495 (2 flits)
Measured flits: 8458 8495 (2 flits)
Class 0:
Remaining flits: 8458 8495 (2 flits)
Measured flits: 8458 8495 (2 flits)
Class 0:
Remaining flits: 8458 8495 (2 flits)
Measured flits: 8458 8495 (2 flits)
Time taken is 7000 cycles
====== Traffic class 0 ======

Total number of flits generated = 8502, changed lanes = 8115
Overall minimum packet latency = 7 (1 samples)
Overall average packet latency = 31.5529 (1 samples)
Overall maximum packet latency = 256 (1 samples)
Overall minimum network latency = 8 (1 samples)
Overall average network latency = 32.5529 (1 samples)
Overall maximum network latency = 257 (1 samples)
Overall minimum flit latency = 8 (1 samples)
Overall average flit latency = 32.593 (1 samples)
Overall maximum flit latency = 257 (1 samples)
Overall minimum fragmentation = 0 (1 samples)
Overall average fragmentation = 0 (1 samples)
Overall maximum fragmentation = 0 (1 samples)
Overall minimum injected packet rate = 0.0836667 (1 samples)
Overall average injected packet rate = 0.0892292 (1 samples)
Overall maximum injected packet rate = 0.104 (1 samples)
Overall minimum accepted packet rate = 0.0813333 (1 samples)
Overall average accepted packet rate = 0.0894583 (1 samples)
Overall maximum accepted packet rate = 0.100333 (1 samples)
Overall minimum injected flit rate = 0.0836667 (1 samples)
Overall average injected flit rate = 0.0892292 (1 samples)
Overall maximum injected flit rate = 0.104 (1 samples)
Overall minimum accepted flit rate = 0.0813333 (1 samples)
Overall average accepted flit rate = 0.0894583 (1 samples)
Overall maximum accepted flit rate = 0.100333 (1 samples)
Overall average injected packet size = 1 (1 samples)
Overall average accepted packet size = 1 (1 samples)
Overall average hops = 3.02616 (1 samples)
Overall throughput of the network (flits/cycle) = 2.83333
Overall throughput of the network (packets/cycle) = 2.83333
Total run time 10.6572
