make: Nothing to be done for 'all'.
Master: Running timer....
Master: Running SRC....
BEGIN Configuration File: ./examples/bitrev
// Topology

topology = torus;
k = 4;
n = 2;

// Routing
routing_function = dim_order;

// Flow control
num_vcs     = 4;
vc_buf_size = 4;
wait_for_tail_credit = 0;

// Router architecture
vc_allocator = islip;
sw_allocator = islip;
alloc_iters  = 1;

credit_delay   = 1;
routing_delay  = 1;
vc_alloc_delay = 1;
sw_alloc_delay = 1;

input_speedup     = 1;
output_speedup    = 1;
internal_speedup  = 1.0;

vc_busy_when_full = 0;

// Traffic
traffic = uniform;
packet_size = 1;

// Simulation
sim_type = throughput;

injection_rate = 0.11;

END Configuration File: ./examples/bitrev
===== Time: 1000 =====
Class 0:
Minimum packet latency = 7
Average packet latency = 30.4209
Maximum packet latency = 77
Minimum network latency = 8
Average network latency = 31.4209
Maximum network latency = 78
Slowest packet = 1003
Minimum flit latency = 8
Average flit latency = 31.4209
Maximum flit latency = 78
Slowest flit = 1003
Minimum fragmentation = 0
Average fragmentation = 0
Maximum fragmentation = 0
Minimum injected packet rate = 0.092 (at node 8)
Average injected packet rate = 0.10675
Maximum injected packet rate = 0.123 (at node 10)
Minimum accepted packet rate = 0.094 (at node 7)
Average accepted packet rate = 0.103938
Maximum accepted packet rate = 0.118 (at node 4)
Minimum injected flit rate = 0.092 (at node 8)
Average injected flit rate = 0.10675
Maximum injected flit rate = 0.123 (at node 10)
Minimum accepted flit rate = 0.094 (at node 7)
Average accepted flit rate = 0.103938
Maximum accepted flit rate = 0.118 (at node 4)
Total number of injected packets = 1708
Total number of injected flits = 1708
Average injected packet length = 1
Total number of accepted packets = 1663
Total number of accepted flits = 1663
Average accepted packet length = 1
Total in-flight flits = 45 (0 measured)
===== Time: 2000 =====
Class 0:
Minimum packet latency = 7
Average packet latency = 31.2538
Maximum packet latency = 228
Minimum network latency = 8
Average network latency = 32.2538
Maximum network latency = 229
Slowest packet = 2266
Minimum flit latency = 8
Average flit latency = 32.2538
Maximum flit latency = 229
Slowest flit = 2266
Minimum fragmentation = 0
Average fragmentation = 0
Maximum fragmentation = 0
Minimum injected packet rate = 0.0955 (at node 7)
Average injected packet rate = 0.104938
Maximum injected packet rate = 0.112 (at node 13)
Minimum accepted packet rate = 0.092 (at node 4)
Average accepted packet rate = 0.102938
Maximum accepted packet rate = 0.1125 (at node 15)
Minimum injected flit rate = 0.0955 (at node 7)
Average injected flit rate = 0.104938
Maximum injected flit rate = 0.112 (at node 13)
Minimum accepted flit rate = 0.092 (at node 4)
Average accepted flit rate = 0.102938
Maximum accepted flit rate = 0.1125 (at node 15)
Total number of injected packets = 3358
Total number of injected flits = 3358
Average injected packet length = 1
Total number of accepted packets = 3294
Total number of accepted flits = 3294
Average accepted packet length = 1
Total in-flight flits = 64 (0 measured)
===== Time: 3000 =====
Class 0:
Minimum packet latency = 7
Average packet latency = 31.6402
Maximum packet latency = 115
Minimum network latency = 8
Average network latency = 32.6402
Maximum network latency = 116
Slowest packet = 4638
Minimum flit latency = 8
Average flit latency = 32.6402
Maximum flit latency = 116
Slowest flit = 4638
Minimum fragmentation = 0
Average fragmentation = 0
Maximum fragmentation = 0
Minimum injected packet rate = 0.1 (at node 0)
Average injected packet rate = 0.111625
Maximum injected packet rate = 0.124 (at node 6)
Minimum accepted packet rate = 0.095 (at node 15)
Average accepted packet rate = 0.111875
Maximum accepted packet rate = 0.13 (at node 2)
Minimum injected flit rate = 0.1 (at node 0)
Average injected flit rate = 0.111625
Maximum injected flit rate = 0.124 (at node 6)
Minimum accepted flit rate = 0.095 (at node 15)
Average accepted flit rate = 0.111875
Maximum accepted flit rate = 0.13 (at node 2)
Total number of injected packets = 1786
Total number of injected flits = 1786
Average injected packet length = 1
Total number of accepted packets = 1790
Total number of accepted flits = 1790
Average accepted packet length = 1
Total in-flight flits = 60 (0 measured)
===== Time: 4000 =====
Class 0:
Minimum packet latency = 7
Average packet latency = 32.5656
Maximum packet latency = 142
Minimum network latency = 8
Average network latency = 33.5656
Maximum network latency = 143
Slowest packet = 5607
Minimum flit latency = 8
Average flit latency = 33.6872
Maximum flit latency = 143
Slowest flit = 5607
Minimum fragmentation = 0
Average fragmentation = 0
Maximum fragmentation = 0
Minimum injected packet rate = 0.081 (at node 0)
Average injected packet rate = 0.110625
Maximum injected packet rate = 0.14 (at node 15)
Minimum accepted packet rate = 0.089 (at node 4)
Average accepted packet rate = 0.1105
Maximum accepted packet rate = 0.126 (at node 7)
Minimum injected flit rate = 0.081 (at node 0)
Average injected flit rate = 0.110625
Maximum injected flit rate = 0.14 (at node 15)
Minimum accepted flit rate = 0.089 (at node 4)
Average accepted flit rate = 0.1105
Maximum accepted flit rate = 0.126 (at node 7)
Total number of injected packets = 1770
Total number of injected flits = 1770
Average injected packet length = 1
Total number of accepted packets = 1768
Total number of accepted flits = 1768
Average accepted packet length = 1
Total in-flight flits = 62 (62 measured)
===== Time: 5000 =====
Class 0:
Minimum packet latency = 7
Average packet latency = 32.3948
Maximum packet latency = 142
Minimum network latency = 8
Average network latency = 33.3948
Maximum network latency = 143
Slowest packet = 5607
Minimum flit latency = 8
Average flit latency = 33.4593
Maximum flit latency = 143
Slowest flit = 5607
Minimum fragmentation = 0
Average fragmentation = 0
Maximum fragmentation = 0
Minimum injected packet rate = 0.096 (at node 14)
Average injected packet rate = 0.109313
Maximum injected packet rate = 0.132 (at node 15)
Minimum accepted packet rate = 0.0945 (at node 4)
Average accepted packet rate = 0.109281
Maximum accepted packet rate = 0.128 (at node 7)
Minimum injected flit rate = 0.096 (at node 14)
Average injected flit rate = 0.109313
Maximum injected flit rate = 0.132 (at node 15)
Minimum accepted flit rate = 0.0945 (at node 4)
Average accepted flit rate = 0.109281
Maximum accepted flit rate = 0.128 (at node 7)
Total number of injected packets = 3498
Total number of injected flits = 3498
Average injected packet length = 1
Total number of accepted packets = 3497
Total number of accepted flits = 3497
Average accepted packet length = 1
Total in-flight flits = 61 (61 measured)
===== Time: 6000 =====
Class 0:
Minimum packet latency = 7
Average packet latency = 32.3348
Maximum packet latency = 142
Minimum network latency = 8
Average network latency = 33.3348
Maximum network latency = 143
Slowest packet = 5607
Minimum flit latency = 8
Average flit latency = 33.3783
Maximum flit latency = 143
Slowest flit = 5607
Minimum fragmentation = 0
Average fragmentation = 0
Maximum fragmentation = 0
Minimum injected packet rate = 0.101333 (at node 0)
Average injected packet rate = 0.109417
Maximum injected packet rate = 0.126 (at node 15)
Minimum accepted packet rate = 0.097 (at node 4)
Average accepted packet rate = 0.109708
Maximum accepted packet rate = 0.121 (at node 7)
Minimum injected flit rate = 0.101333 (at node 0)
Average injected flit rate = 0.109417
Maximum injected flit rate = 0.126 (at node 15)
Minimum accepted flit rate = 0.097 (at node 4)
Average accepted flit rate = 0.109708
Maximum accepted flit rate = 0.121 (at node 7)
Total number of injected packets = 5252
Total number of injected flits = 5252
Average injected packet length = 1
Total number of accepted packets = 5266
Total number of accepted flits = 5266
Average accepted packet length = 1
Total in-flight flits = 46 (46 measured)
Draining remaining packets ...
Class 0:
Remaining flits: 10303 10348 10355 10357 10359 10361 10363 10364 10367 10368 [...] (34 flits)
Measured flits: 10303 10348 10355 10357 10359 10361 10363 10364 10367 10368 [...] (34 flits)
Class 0:
Remaining flits: 10355 10361 10363 10364 10367 10369 10370 10371 10372 10373 [...] (25 flits)
Measured flits: 10355 10361 10363 10364 10367 10369 10370 10371 10372 10373 [...] (25 flits)
Class 0:
Remaining flits: 10364 10367 10369 10373 10377 10378 10385 10386 10389 10392 [...] (11 flits)
Measured flits: 10364 10367 10369 10373 10377 10378 10385 10386 10389 10392 [...] (11 flits)
Class 0:
Remaining flits: 10364 10377 10395 (3 flits)
Measured flits: 10364 10377 10395 (3 flits)
Class 0:
Remaining flits: 10364 10377 (2 flits)
Measured flits: 10364 10377 (2 flits)
Class 0:
Remaining flits: 10364 10377 (2 flits)
Measured flits: 10364 10377 (2 flits)
Class 0:
Remaining flits: 10364 10377 (2 flits)
Measured flits: 10364 10377 (2 flits)
Class 0:
Remaining flits: 10364 10377 (2 flits)
Measured flits: 10364 10377 (2 flits)
Class 0:
Remaining flits: 10364 10377 (2 flits)
Measured flits: 10364 10377 (2 flits)
Class 0:
Remaining flits: 10364 10377 (2 flits)
Measured flits: 10364 10377 (2 flits)
Class 0:
Remaining flits: 10364 10377 (2 flits)
Measured flits: 10364 10377 (2 flits)
Class 0:
Remaining flits: 10364 10377 (2 flits)
Measured flits: 10364 10377 (2 flits)
Class 0:
Remaining flits: 10364 10377 (2 flits)
Measured flits: 10364 10377 (2 flits)
Class 0:
Remaining flits: 10364 10377 (2 flits)
Measured flits: 10364 10377 (2 flits)
Class 0:
Remaining flits: 10364 10377 (2 flits)
Measured flits: 10364 10377 (2 flits)
Class 0:
Remaining flits: 10364 10377 (2 flits)
Measured flits: 10364 10377 (2 flits)
Class 0:
Remaining flits: 10364 10377 (2 flits)
Measured flits: 10364 10377 (2 flits)
Class 0:
Remaining flits: 10364 10377 (2 flits)
Measured flits: 10364 10377 (2 flits)
Class 0:
Remaining flits: 10364 10377 (2 flits)
Measured flits: 10364 10377 (2 flits)
Class 0:
Remaining flits: 10364 10377 (2 flits)
Measured flits: 10364 10377 (2 flits)
Class 0:
Remaining flits: 10364 10377 (2 flits)
Measured flits: 10364 10377 (2 flits)
Class 0:
Remaining flits: 10364 10377 (2 flits)
Measured flits: 10364 10377 (2 flits)
Class 0:
Remaining flits: 10364 10377 (2 flits)
Measured flits: 10364 10377 (2 flits)
Class 0:
Remaining flits: 10364 10377 (2 flits)
Measured flits: 10364 10377 (2 flits)
Class 0:
Remaining flits: 10364 10377 (2 flits)
Measured flits: 10364 10377 (2 flits)
Class 0:
Remaining flits: 10364 10377 (2 flits)
Measured flits: 10364 10377 (2 flits)
Class 0:
Remaining flits: 10364 10377 (2 flits)
Measured flits: 10364 10377 (2 flits)
Class 0:
Remaining flits: 10364 10377 (2 flits)
Measured flits: 10364 10377 (2 flits)
Class 0:
Remaining flits: 10364 10377 (2 flits)
Measured flits: 10364 10377 (2 flits)
Class 0:
Remaining flits: 10364 10377 (2 flits)
Measured flits: 10364 10377 (2 flits)
Class 0:
Remaining flits: 10364 10377 (2 flits)
Measured flits: 10364 10377 (2 flits)
Class 0:
Remaining flits: 10364 10377 (2 flits)
Measured flits: 10364 10377 (2 flits)
Class 0:
Remaining flits: 10364 10377 (2 flits)
Measured flits: 10364 10377 (2 flits)
Class 0:
Remaining flits: 10364 10377 (2 flits)
Measured flits: 10364 10377 (2 flits)
Class 0:
Remaining flits: 10364 10377 (2 flits)
Measured flits: 10364 10377 (2 flits)
Class 0:
Remaining flits: 10364 10377 (2 flits)
Measured flits: 10364 10377 (2 flits)
Class 0:
Remaining flits: 10364 10377 (2 flits)
Measured flits: 10364 10377 (2 flits)
Class 0:
Remaining flits: 10364 10377 (2 flits)
Measured flits: 10364 10377 (2 flits)
Class 0:
Remaining flits: 10364 10377 (2 flits)
Measured flits: 10364 10377 (2 flits)
Class 0:
Remaining flits: 10364 10377 (2 flits)
Measured flits: 10364 10377 (2 flits)
Class 0:
Remaining flits: 10364 10377 (2 flits)
Measured flits: 10364 10377 (2 flits)
Class 0:
Remaining flits: 10364 10377 (2 flits)
Measured flits: 10364 10377 (2 flits)
Class 0:
Remaining flits: 10364 10377 (2 flits)
Measured flits: 10364 10377 (2 flits)
Class 0:
Remaining flits: 10364 10377 (2 flits)
Measured flits: 10364 10377 (2 flits)
Class 0:
Remaining flits: 10364 10377 (2 flits)
Measured flits: 10364 10377 (2 flits)
Class 0:
Remaining flits: 10364 10377 (2 flits)
Measured flits: 10364 10377 (2 flits)
Class 0:
Remaining flits: 10364 10377 (2 flits)
Measured flits: 10364 10377 (2 flits)
Class 0:
Remaining flits: 10364 10377 (2 flits)
Measured flits: 10364 10377 (2 flits)
Class 0:
Remaining flits: 10364 10377 (2 flits)
Measured flits: 10364 10377 (2 flits)
Class 0:
Remaining flits: 10364 10377 (2 flits)
Measured flits: 10364 10377 (2 flits)
Class 0:
Remaining flits: 10364 10377 (2 flits)
Measured flits: 10364 10377 (2 flits)
Class 0:
Remaining flits: 10364 10377 (2 flits)
Measured flits: 10364 10377 (2 flits)
Class 0:
Remaining flits: 10364 10377 (2 flits)
Measured flits: 10364 10377 (2 flits)
Class 0:
Remaining flits: 10364 10377 (2 flits)
Measured flits: 10364 10377 (2 flits)
Class 0:
Remaining flits: 10364 10377 (2 flits)
Measured flits: 10364 10377 (2 flits)
Class 0:
Remaining flits: 10364 10377 (2 flits)
Measured flits: 10364 10377 (2 flits)
Class 0:
Remaining flits: 10364 10377 (2 flits)
Measured flits: 10364 10377 (2 flits)
Class 0:
Remaining flits: 10364 10377 (2 flits)
Measured flits: 10364 10377 (2 flits)
Class 0:
Remaining flits: 10364 10377 (2 flits)
Measured flits: 10364 10377 (2 flits)
Class 0:
Remaining flits: 10364 10377 (2 flits)
Measured flits: 10364 10377 (2 flits)
Class 0:
Remaining flits: 10364 10377 (2 flits)
Measured flits: 10364 10377 (2 flits)
Class 0:
Remaining flits: 10364 10377 (2 flits)
Measured flits: 10364 10377 (2 flits)
Class 0:
Remaining flits: 10364 10377 (2 flits)
Measured flits: 10364 10377 (2 flits)
Class 0:
Remaining flits: 10364 10377 (2 flits)
Measured flits: 10364 10377 (2 flits)
Class 0:
Remaining flits: 10364 10377 (2 flits)
Measured flits: 10364 10377 (2 flits)
Class 0:
Remaining flits: 10364 10377 (2 flits)
Measured flits: 10364 10377 (2 flits)
Class 0:
Remaining flits: 10364 10377 (2 flits)
Measured flits: 10364 10377 (2 flits)
Class 0:
Remaining flits: 10364 10377 (2 flits)
Measured flits: 10364 10377 (2 flits)
Class 0:
Remaining flits: 10364 10377 (2 flits)
Measured flits: 10364 10377 (2 flits)
Class 0:
Remaining flits: 10364 10377 (2 flits)
Measured flits: 10364 10377 (2 flits)
Class 0:
Remaining flits: 10364 10377 (2 flits)
Measured flits: 10364 10377 (2 flits)
Class 0:
Remaining flits: 10364 10377 (2 flits)
Measured flits: 10364 10377 (2 flits)
Class 0:
Remaining flits: 10364 10377 (2 flits)
Measured flits: 10364 10377 (2 flits)
Class 0:
Remaining flits: 10364 10377 (2 flits)
Measured flits: 10364 10377 (2 flits)
Class 0:
Remaining flits: 10364 10377 (2 flits)
Measured flits: 10364 10377 (2 flits)
Class 0:
Remaining flits: 10364 10377 (2 flits)
Measured flits: 10364 10377 (2 flits)
Class 0:
Remaining flits: 10364 10377 (2 flits)
Measured flits: 10364 10377 (2 flits)
Class 0:
Remaining flits: 10364 10377 (2 flits)
Measured flits: 10364 10377 (2 flits)
Class 0:
Remaining flits: 10364 10377 (2 flits)
Measured flits: 10364 10377 (2 flits)
Class 0:
Remaining flits: 10364 10377 (2 flits)
Measured flits: 10364 10377 (2 flits)
Class 0:
Remaining flits: 10364 10377 (2 flits)
Measured flits: 10364 10377 (2 flits)
Class 0:
Remaining flits: 10364 10377 (2 flits)
Measured flits: 10364 10377 (2 flits)
Class 0:
Remaining flits: 10364 10377 (2 flits)
Measured flits: 10364 10377 (2 flits)
Class 0:
Remaining flits: 10364 10377 (2 flits)
Measured flits: 10364 10377 (2 flits)
Class 0:
Remaining flits: 10364 10377 (2 flits)
Measured flits: 10364 10377 (2 flits)
Class 0:
Remaining flits: 10364 10377 (2 flits)
Measured flits: 10364 10377 (2 flits)
Class 0:
Remaining flits: 10364 10377 (2 flits)
Measured flits: 10364 10377 (2 flits)
Class 0:
Remaining flits: 10364 10377 (2 flits)
Measured flits: 10364 10377 (2 flits)
Class 0:
Remaining flits: 10364 10377 (2 flits)
Measured flits: 10364 10377 (2 flits)
Class 0:
Remaining flits: 10364 10377 (2 flits)
Measured flits: 10364 10377 (2 flits)
Class 0:
Remaining flits: 10364 10377 (2 flits)
Measured flits: 10364 10377 (2 flits)
Class 0:
Remaining flits: 10364 10377 (2 flits)
Measured flits: 10364 10377 (2 flits)
Class 0:
Remaining flits: 10364 10377 (2 flits)
Measured flits: 10364 10377 (2 flits)
Class 0:
Remaining flits: 10364 10377 (2 flits)
Measured flits: 10364 10377 (2 flits)
Class 0:
Remaining flits: 10364 10377 (2 flits)
Measured flits: 10364 10377 (2 flits)
Class 0:
Remaining flits: 10364 10377 (2 flits)
Measured flits: 10364 10377 (2 flits)
Class 0:
Remaining flits: 10364 10377 (2 flits)
Measured flits: 10364 10377 (2 flits)
Class 0:
Remaining flits: 10364 10377 (2 flits)
Measured flits: 10364 10377 (2 flits)
Class 0:
Remaining flits: 10364 10377 (2 flits)
Measured flits: 10364 10377 (2 flits)
Class 0:
Remaining flits: 10364 10377 (2 flits)
Measured flits: 10364 10377 (2 flits)
Class 0:
Remaining flits: 10364 10377 (2 flits)
Measured flits: 10364 10377 (2 flits)
Time taken is 7000 cycles
====== Traffic class 0 ======

Total number of flits generated = 10396, changed lanes = 9939
Overall minimum packet latency = 7 (1 samples)
Overall average packet latency = 32.3714 (1 samples)
Overall maximum packet latency = 142 (1 samples)
Overall minimum network latency = 8 (1 samples)
Overall average network latency = 33.3714 (1 samples)
Overall maximum network latency = 143 (1 samples)
Overall minimum flit latency = 8 (1 samples)
Overall average flit latency = 33.4141 (1 samples)
Overall maximum flit latency = 143 (1 samples)
Overall minimum fragmentation = 0 (1 samples)
Overall average fragmentation = 0 (1 samples)
Overall maximum fragmentation = 0 (1 samples)
Overall minimum injected packet rate = 0.101333 (1 samples)
Overall average injected packet rate = 0.109417 (1 samples)
Overall maximum injected packet rate = 0.126 (1 samples)
Overall minimum accepted packet rate = 0.097 (1 samples)
Overall average accepted packet rate = 0.109708 (1 samples)
Overall maximum accepted packet rate = 0.121 (1 samples)
Overall minimum injected flit rate = 0.101333 (1 samples)
Overall average injected flit rate = 0.109417 (1 samples)
Overall maximum injected flit rate = 0.126 (1 samples)
Overall minimum accepted flit rate = 0.097 (1 samples)
Overall average accepted flit rate = 0.109708 (1 samples)
Overall maximum accepted flit rate = 0.121 (1 samples)
Overall average injected packet size = 1 (1 samples)
Overall average accepted packet size = 1 (1 samples)
Overall average hops = 2.98 (1 samples)
Overall throughput of the network (flits/cycle) = 3.46467
Overall throughput of the network (packets/cycle) = 3.46467
Total run time 16.1004
