make: Nothing to be done for 'all'.
Master: Running timer....
Master: Running SRC....
BEGIN Configuration File: ./examples/bitrev
// Topology

topology = mesh;
k = 4;
n = 2;

// Routing
routing_function = dor;

// Flow control
num_vcs     = 4;
vc_buf_size = 4;
wait_for_tail_credit = 0;

// Router architecture
vc_allocator = islip;
sw_allocator = islip;
alloc_iters  = 1;

credit_delay   = 1;
routing_delay  = 1;
vc_alloc_delay = 1;
sw_alloc_delay = 1;

input_speedup     = 1;
output_speedup    = 1;
internal_speedup  = 1.0;

vc_busy_when_full = 0;

// Traffic
traffic = bitcomp;
packet_size = 1;

// Simulation
sim_type = throughput;

injection_rate = 0.05;

END Configuration File: ./examples/bitrev
===== Time: 10000 =====
Class 0:
Minimum packet latency = 22
Average packet latency = 49.8664
Maximum packet latency = 129
Minimum network latency = 23
Average network latency = 50.8664
Maximum network latency = 130
Slowest packet = 1502
Minimum flit latency = 23
Average flit latency = 50.8664
Maximum flit latency = 130
Slowest flit = 1502
Minimum fragmentation = 0
Average fragmentation = 0
Maximum fragmentation = 0
Minimum injected packet rate = 0.0458 (at node 0)
Average injected packet rate = 0.0494687
Maximum injected packet rate = 0.0515 (at node 12)
Minimum accepted packet rate = 0.0457 (at node 15)
Average accepted packet rate = 0.0492563
Maximum accepted packet rate = 0.0512 (at node 3)
Minimum injected flit rate = 0.0458 (at node 0)
Average injected flit rate = 0.0494687
Maximum injected flit rate = 0.0515 (at node 12)
Minimum accepted flit rate = 0.0457 (at node 15)
Average accepted flit rate = 0.0492563
Maximum accepted flit rate = 0.0512 (at node 3)
Total number of injected packets = 7915
Total number of injected flits = 7915
Average injected packet length = 1
Total number of accepted packets = 7881
Total number of accepted flits = 7881
Average accepted packet length = 1
Total in-flight flits = 34 (0 measured)
===== Time: 20000 =====
Class 0:
Minimum packet latency = 22
Average packet latency = 49.9855
Maximum packet latency = 144
Minimum network latency = 23
Average network latency = 50.9855
Maximum network latency = 145
Slowest packet = 8487
Minimum flit latency = 23
Average flit latency = 50.9855
Maximum flit latency = 145
Slowest flit = 8487
Minimum fragmentation = 0
Average fragmentation = 0
Maximum fragmentation = 0
Minimum injected packet rate = 0.0483 (at node 8)
Average injected packet rate = 0.0500375
Maximum injected packet rate = 0.0526 (at node 12)
Minimum accepted packet rate = 0.0481 (at node 7)
Average accepted packet rate = 0.0499187
Maximum accepted packet rate = 0.0524 (at node 3)
Minimum injected flit rate = 0.0483 (at node 8)
Average injected flit rate = 0.0500375
Maximum injected flit rate = 0.0526 (at node 12)
Minimum accepted flit rate = 0.0481 (at node 7)
Average accepted flit rate = 0.0499187
Maximum accepted flit rate = 0.0524 (at node 3)
Total number of injected packets = 16012
Total number of injected flits = 16012
Average injected packet length = 1
Total number of accepted packets = 15974
Total number of accepted flits = 15974
Average accepted packet length = 1
Total in-flight flits = 38 (0 measured)
===== Time: 30000 =====
Class 0:
Minimum packet latency = 22
Average packet latency = 49.9537
Maximum packet latency = 126
Minimum network latency = 23
Average network latency = 50.9537
Maximum network latency = 127
Slowest packet = 16656
Minimum flit latency = 23
Average flit latency = 50.9537
Maximum flit latency = 127
Slowest flit = 16656
Minimum fragmentation = 0
Average fragmentation = 0
Maximum fragmentation = 0
Minimum injected packet rate = 0.045 (at node 15)
Average injected packet rate = 0.0495875
Maximum injected packet rate = 0.0541 (at node 13)
Minimum accepted packet rate = 0.0447 (at node 0)
Average accepted packet rate = 0.04965
Maximum accepted packet rate = 0.0545 (at node 2)
Minimum injected flit rate = 0.045 (at node 15)
Average injected flit rate = 0.0495875
Maximum injected flit rate = 0.0541 (at node 13)
Minimum accepted flit rate = 0.0447 (at node 0)
Average accepted flit rate = 0.04965
Maximum accepted flit rate = 0.0545 (at node 2)
Total number of injected packets = 7934
Total number of injected flits = 7934
Average injected packet length = 1
Total number of accepted packets = 7944
Total number of accepted flits = 7944
Average accepted packet length = 1
Total in-flight flits = 28 (0 measured)
===== Time: 40000 =====
Class 0:
Minimum packet latency = 22
Average packet latency = 50.0524
Maximum packet latency = 131
Minimum network latency = 23
Average network latency = 51.0524
Maximum network latency = 132
Slowest packet = 31139
Minimum flit latency = 23
Average flit latency = 51.0475
Maximum flit latency = 132
Slowest flit = 31139
Minimum fragmentation = 0
Average fragmentation = 0
Maximum fragmentation = 0
Minimum injected packet rate = 0.0473 (at node 6)
Average injected packet rate = 0.0501938
Maximum injected packet rate = 0.0543 (at node 14)
Minimum accepted packet rate = 0.0473 (at node 9)
Average accepted packet rate = 0.0501062
Maximum accepted packet rate = 0.0539 (at node 1)
Minimum injected flit rate = 0.0473 (at node 6)
Average injected flit rate = 0.0501938
Maximum injected flit rate = 0.0543 (at node 14)
Minimum accepted flit rate = 0.0473 (at node 9)
Average accepted flit rate = 0.0501062
Maximum accepted flit rate = 0.0539 (at node 1)
Total number of injected packets = 8031
Total number of injected flits = 8031
Average injected packet length = 1
Total number of accepted packets = 8017
Total number of accepted flits = 8017
Average accepted packet length = 1
Total in-flight flits = 42 (42 measured)
===== Time: 50000 =====
Class 0:
Minimum packet latency = 22
Average packet latency = 49.9773
Maximum packet latency = 155
Minimum network latency = 23
Average network latency = 50.9773
Maximum network latency = 156
Slowest packet = 38166
Minimum flit latency = 23
Average flit latency = 50.9749
Maximum flit latency = 156
Slowest flit = 38166
Minimum fragmentation = 0
Average fragmentation = 0
Maximum fragmentation = 0
Minimum injected packet rate = 0.04815 (at node 10)
Average injected packet rate = 0.0503
Maximum injected packet rate = 0.05345 (at node 14)
Minimum accepted packet rate = 0.0482 (at node 5)
Average accepted packet rate = 0.0502469
Maximum accepted packet rate = 0.05335 (at node 1)
Minimum injected flit rate = 0.04815 (at node 10)
Average injected flit rate = 0.0503
Maximum injected flit rate = 0.05345 (at node 14)
Minimum accepted flit rate = 0.0482 (at node 5)
Average accepted flit rate = 0.0502469
Maximum accepted flit rate = 0.05335 (at node 1)
Total number of injected packets = 16096
Total number of injected flits = 16096
Average injected packet length = 1
Total number of accepted packets = 16079
Total number of accepted flits = 16079
Average accepted packet length = 1
Total in-flight flits = 45 (45 measured)
===== Time: 60000 =====
Class 0:
Minimum packet latency = 22
Average packet latency = 49.9326
Maximum packet latency = 155
Minimum network latency = 23
Average network latency = 50.9326
Maximum network latency = 156
Slowest packet = 38166
Minimum flit latency = 23
Average flit latency = 50.9311
Maximum flit latency = 156
Slowest flit = 38166
Minimum fragmentation = 0
Average fragmentation = 0
Maximum fragmentation = 0
Minimum injected packet rate = 0.0482 (at node 10)
Average injected packet rate = 0.0501896
Maximum injected packet rate = 0.0528667 (at node 14)
Minimum accepted packet rate = 0.0482667 (at node 5)
Average accepted packet rate = 0.0501583
Maximum accepted packet rate = 0.0528333 (at node 1)
Minimum injected flit rate = 0.0482 (at node 10)
Average injected flit rate = 0.0501896
Maximum injected flit rate = 0.0528667 (at node 14)
Minimum accepted flit rate = 0.0482667 (at node 5)
Average accepted flit rate = 0.0501583
Maximum accepted flit rate = 0.0528333 (at node 1)
Total number of injected packets = 24091
Total number of injected flits = 24091
Average injected packet length = 1
Total number of accepted packets = 24076
Total number of accepted flits = 24076
Average accepted packet length = 1
Total in-flight flits = 43 (43 measured)
Draining remaining packets ...
Class 0:
Remaining flits: 47974 47980 47982 47985 47993 47996 47997 47999 48001 48003 [...] (39 flits)
Measured flits: 47974 47980 47982 47985 47993 47996 47997 47999 48001 48003 [...] (39 flits)
Class 0:
Remaining flits: 47985 47996 48003 48004 48005 48007 48009 48010 48012 48013 [...] (30 flits)
Measured flits: 47985 47996 48003 48004 48005 48007 48009 48010 48012 48013 [...] (30 flits)
Class 0:
Remaining flits: 47996 48003 48005 48010 48013 48015 48017 48021 48022 48023 [...] (18 flits)
Measured flits: 47996 48003 48005 48010 48013 48015 48017 48021 48022 48023 [...] (18 flits)
Class 0:
Remaining flits: 48003 48005 48013 48017 48022 48023 48024 48025 48028 48029 [...] (13 flits)
Measured flits: 48003 48005 48013 48017 48022 48023 48024 48025 48028 48029 [...] (13 flits)
Class 0:
Remaining flits: 48017 48023 48028 48029 48033 (5 flits)
Measured flits: 48017 48023 48028 48029 48033 (5 flits)
Class 0:
Remaining flits: 48017 48028 48029 48033 (4 flits)
Measured flits: 48017 48028 48029 48033 (4 flits)
Class 0:
Remaining flits: 48033 (1 flits)
Measured flits: 48033 (1 flits)
Class 0:
Remaining flits: (0 flits)
Measured flits: (0 flits)
Class 0:
Remaining flits: (0 flits)
Measured flits: (0 flits)
Class 0:
Remaining flits: (0 flits)
Measured flits: (0 flits)
Class 0:
Remaining flits: (0 flits)
Measured flits: (0 flits)
Class 0:
Remaining flits: (0 flits)
Measured flits: (0 flits)
Class 0:
Remaining flits: (0 flits)
Measured flits: (0 flits)
Class 0:
Remaining flits: (0 flits)
Measured flits: (0 flits)
Class 0:
Remaining flits: (0 flits)
Measured flits: (0 flits)
Class 0:
Remaining flits: (0 flits)
Measured flits: (0 flits)
Class 0:
Remaining flits: (0 flits)
Measured flits: (0 flits)
Class 0:
Remaining flits: (0 flits)
Measured flits: (0 flits)
Class 0:
Remaining flits: (0 flits)
Measured flits: (0 flits)
Class 0:
Remaining flits: (0 flits)
Measured flits: (0 flits)
Class 0:
Remaining flits: (0 flits)
Measured flits: (0 flits)
Class 0:
Remaining flits: (0 flits)
Measured flits: (0 flits)
Class 0:
Remaining flits: (0 flits)
Measured flits: (0 flits)
Class 0:
Remaining flits: (0 flits)
Measured flits: (0 flits)
Class 0:
Remaining flits: (0 flits)
Measured flits: (0 flits)
Class 0:
Remaining flits: (0 flits)
Measured flits: (0 flits)
Class 0:
Remaining flits: (0 flits)
Measured flits: (0 flits)
Class 0:
Remaining flits: (0 flits)
Measured flits: (0 flits)
Class 0:
Remaining flits: (0 flits)
Measured flits: (0 flits)
Class 0:
Remaining flits: (0 flits)
Measured flits: (0 flits)
Class 0:
Remaining flits: (0 flits)
Measured flits: (0 flits)
Class 0:
Remaining flits: (0 flits)
Measured flits: (0 flits)
Class 0:
Remaining flits: (0 flits)
Measured flits: (0 flits)
Class 0:
Remaining flits: (0 flits)
Measured flits: (0 flits)
Class 0:
Remaining flits: (0 flits)
Measured flits: (0 flits)
Class 0:
Remaining flits: (0 flits)
Measured flits: (0 flits)
Class 0:
Remaining flits: (0 flits)
Measured flits: (0 flits)
Class 0:
Remaining flits: (0 flits)
Measured flits: (0 flits)
Class 0:
Remaining flits: (0 flits)
Measured flits: (0 flits)
Class 0:
Remaining flits: (0 flits)
Measured flits: (0 flits)
Class 0:
Remaining flits: (0 flits)
Measured flits: (0 flits)
Class 0:
Remaining flits: (0 flits)
Measured flits: (0 flits)
Class 0:
Remaining flits: (0 flits)
Measured flits: (0 flits)
Class 0:
Remaining flits: (0 flits)
Measured flits: (0 flits)
Class 0:
Remaining flits: (0 flits)
Measured flits: (0 flits)
Class 0:
Remaining flits: (0 flits)
Measured flits: (0 flits)
Class 0:
Remaining flits: (0 flits)
Measured flits: (0 flits)
Class 0:
Remaining flits: (0 flits)
Measured flits: (0 flits)
Class 0:
Remaining flits: (0 flits)
Measured flits: (0 flits)
Class 0:
Remaining flits: (0 flits)
Measured flits: (0 flits)
Class 0:
Remaining flits: (0 flits)
Measured flits: (0 flits)
Class 0:
Remaining flits: (0 flits)
Measured flits: (0 flits)
Class 0:
Remaining flits: (0 flits)
Measured flits: (0 flits)
Class 0:
Remaining flits: (0 flits)
Measured flits: (0 flits)
Class 0:
Remaining flits: (0 flits)
Measured flits: (0 flits)
Class 0:
Remaining flits: (0 flits)
Measured flits: (0 flits)
Class 0:
Remaining flits: (0 flits)
Measured flits: (0 flits)
Class 0:
Remaining flits: (0 flits)
Measured flits: (0 flits)
Class 0:
Remaining flits: (0 flits)
Measured flits: (0 flits)
Class 0:
Remaining flits: (0 flits)
Measured flits: (0 flits)
Class 0:
Remaining flits: (0 flits)
Measured flits: (0 flits)
Class 0:
Remaining flits: (0 flits)
Measured flits: (0 flits)
Class 0:
Remaining flits: (0 flits)
Measured flits: (0 flits)
Class 0:
Remaining flits: (0 flits)
Measured flits: (0 flits)
Class 0:
Remaining flits: (0 flits)
Measured flits: (0 flits)
Class 0:
Remaining flits: (0 flits)
Measured flits: (0 flits)
Class 0:
Remaining flits: (0 flits)
Measured flits: (0 flits)
Class 0:
Remaining flits: (0 flits)
Measured flits: (0 flits)
Class 0:
Remaining flits: (0 flits)
Measured flits: (0 flits)
Class 0:
Remaining flits: (0 flits)
Measured flits: (0 flits)
Class 0:
Remaining flits: (0 flits)
Measured flits: (0 flits)
Class 0:
Remaining flits: (0 flits)
Measured flits: (0 flits)
Class 0:
Remaining flits: (0 flits)
Measured flits: (0 flits)
Class 0:
Remaining flits: (0 flits)
Measured flits: (0 flits)
Class 0:
Remaining flits: (0 flits)
Measured flits: (0 flits)
Class 0:
Remaining flits: (0 flits)
Measured flits: (0 flits)
Class 0:
Remaining flits: (0 flits)
Measured flits: (0 flits)
Class 0:
Remaining flits: (0 flits)
Measured flits: (0 flits)
Class 0:
Remaining flits: (0 flits)
Measured flits: (0 flits)
Class 0:
Remaining flits: (0 flits)
Measured flits: (0 flits)
Class 0:
Remaining flits: (0 flits)
Measured flits: (0 flits)
Class 0:
Remaining flits: (0 flits)
Measured flits: (0 flits)
Class 0:
Remaining flits: (0 flits)
Measured flits: (0 flits)
Class 0:
Remaining flits: (0 flits)
Measured flits: (0 flits)
Class 0:
Remaining flits: (0 flits)
Measured flits: (0 flits)
Class 0:
Remaining flits: (0 flits)
Measured flits: (0 flits)
Class 0:
Remaining flits: (0 flits)
Measured flits: (0 flits)
Class 0:
Remaining flits: (0 flits)
Measured flits: (0 flits)
Class 0:
Remaining flits: (0 flits)
Measured flits: (0 flits)
Class 0:
Remaining flits: (0 flits)
Measured flits: (0 flits)
Class 0:
Remaining flits: (0 flits)
Measured flits: (0 flits)
Class 0:
Remaining flits: (0 flits)
Measured flits: (0 flits)
Class 0:
Remaining flits: (0 flits)
Measured flits: (0 flits)
Class 0:
Remaining flits: (0 flits)
Measured flits: (0 flits)
Class 0:
Remaining flits: (0 flits)
Measured flits: (0 flits)
Class 0:
Remaining flits: (0 flits)
Measured flits: (0 flits)
Class 0:
Remaining flits: (0 flits)
Measured flits: (0 flits)
Class 0:
Remaining flits: (0 flits)
Measured flits: (0 flits)
Class 0:
Remaining flits: (0 flits)
Measured flits: (0 flits)
Class 0:
Remaining flits: (0 flits)
Measured flits: (0 flits)
Class 0:
Remaining flits: (0 flits)
Measured flits: (0 flits)
Time taken is 61000 cycles
====== Traffic class 0 ======

Total number of flits generated = 48037, changed lanes = 47743
Overall minimum packet latency = 22 (1 samples)
Overall average packet latency = 49.9461 (1 samples)
Overall maximum packet latency = 155 (1 samples)
Overall minimum network latency = 23 (1 samples)
Overall average network latency = 50.9461 (1 samples)
Overall maximum network latency = 156 (1 samples)
Overall minimum flit latency = 23 (1 samples)
Overall average flit latency = 50.9446 (1 samples)
Overall maximum flit latency = 156 (1 samples)
Overall minimum fragmentation = 0 (1 samples)
Overall average fragmentation = 0 (1 samples)
Overall maximum fragmentation = 0 (1 samples)
Overall minimum injected packet rate = 0.0482 (1 samples)
Overall average injected packet rate = 0.0501896 (1 samples)
Overall maximum injected packet rate = 0.0528667 (1 samples)
Overall minimum accepted packet rate = 0.0482667 (1 samples)
Overall average accepted packet rate = 0.0501583 (1 samples)
Overall maximum accepted packet rate = 0.0528333 (1 samples)
Overall minimum injected flit rate = 0.0482 (1 samples)
Overall average injected flit rate = 0.0501896 (1 samples)
Overall maximum injected flit rate = 0.0528667 (1 samples)
Overall minimum accepted flit rate = 0.0482667 (1 samples)
Overall average accepted flit rate = 0.0501583 (1 samples)
Overall maximum accepted flit rate = 0.0528333 (1 samples)
Overall average injected packet size = 1 (1 samples)
Overall average accepted packet size = 1 (1 samples)
Overall average hops = 5.00672 (1 samples)
Overall throughput of the network (flits/cycle) = 1.60123
Overall throughput of the network (packets/cycle) = 1.60123
Total run time 117.195
