make: Nothing to be done for 'all'.
Master: Running timer....
Master: Running SRC....
BEGIN Configuration File: ./examples/mesh88_lat_blackscholes
// $Id$

topology = mesh;
k = 8;
n = 2;

// Routing
routing_function = planar_adapt;

// Flow control
num_vcs     = 1;
vc_buf_size = 4;
wait_for_tail_credit = 1;

// Router architecture
vc_allocator = islip;
sw_allocator = islip;
alloc_iters  = 1;

credit_delay   = 1;
routing_delay  = 1;
vc_alloc_delay = 1;
sw_alloc_delay = 1;

input_speedup     = 1;
output_speedup    = 1;
internal_speedup  = 1.0;

vc_busy_when_full = 0;

// Traffic
workload=netrace({/home/sarab/Downloads/BookSim_Benchmark_files/x264_64c_simsmall.tra.bz2,100000000,1,2,1,1,0);

// Simulation
sim_type = workload;

END Configuration File: ./examples/mesh88_lat_blackscholes
Warming up...
===== Time: 10000 =====
Class 0:
Packets read from trace = 174 of 31326528 (0%)
Future packets = 1
Waiting packets = 0
Stalled packets = 160
Packets pending injection = 0
Packets in flight = 3
Minimum packet latency = 287
Average packet latency = 1324.9
Maximum packet latency = 4963
Minimum network latency = 283
Average network latency = 1322.3
Maximum network latency = 4959
Slowest packet = 6
Minimum flit latency = 22
Average flit latency = 273.161
Maximum flit latency = 4950
Slowest flit = 34
Minimum fragmentation = 193
Average fragmentation = 1245.8
Maximum fragmentation = 4897
Minimum injected packet rate = 0 (at node 0)
Average injected packet rate = 2.03125e-05
Maximum injected packet rate = 0.0006 (at node 61)
Minimum accepted packet rate = 0 (at node 0)
Average accepted packet rate = 1.5625e-05
Maximum accepted packet rate = 0.0006 (at node 47)
Minimum injected flit rate = 0 (at node 0)
Average injected flit rate = 0.000101562
Maximum injected flit rate = 0.003 (at node 61)
Minimum accepted flit rate = 0 (at node 0)
Average accepted flit rate = 9.6875e-05
Maximum accepted flit rate = 0.003 (at node 47)
Total number of injected packets = 13
Total number of injected flits = 65
Average injected packet length = 5
Total number of accepted packets = 10
Total number of accepted flits = 62
Average accepted packet length = 6.2
Total in-flight flits = 3 (0 measured)
===== Time: 20000 =====
Class 0:
Packets read from trace = 316 of 31326528 (0%)
Future packets = 1
Waiting packets = 0
Stalled packets = 285
Packets pending injection = 6
Packets in flight = 8
Minimum packet latency = 23
Average packet latency = 2576.5
Maximum packet latency = 9516
Minimum network latency = 22
Average network latency = 2574.38
Maximum network latency = 9516
Slowest packet = 8
Minimum flit latency = 22
Average flit latency = 555.816
Maximum flit latency = 9508
Slowest flit = 44
Minimum fragmentation = 0
Average fragmentation = 2503.44
Maximum fragmentation = 9490
Minimum injected packet rate = 0 (at node 3)
Average injected packet rate = 1.875e-05
Maximum injected packet rate = 0.0003 (at node 61)
Minimum accepted packet rate = 0 (at node 0)
Average accepted packet rate = 1.25e-05
Maximum accepted packet rate = 0.0003 (at node 47)
Minimum injected flit rate = 0 (at node 3)
Average injected flit rate = 8.67188e-05
Maximum injected flit rate = 0.0015 (at node 61)
Minimum accepted flit rate = 0 (at node 0)
Average accepted flit rate = 6.79687e-05
Maximum accepted flit rate = 0.0015 (at node 47)
Total number of injected packets = 24
Total number of injected flits = 111
Average injected packet length = 4.625
Total number of accepted packets = 16
Total number of accepted flits = 87
Average accepted packet length = 5.4375
Total in-flight flits = 25 (0 measured)
===== Time: 30000 =====
Class 0:
Packets read from trace = 513 of 31326528 (0%)
Future packets = 1
Waiting packets = 0
Stalled packets = 461
Packets pending injection = 18
Packets in flight = 8
Minimum packet latency = 23
Average packet latency = 2087.52
Maximum packet latency = 9516
Minimum network latency = 22
Average network latency = 2084.96
Maximum network latency = 9516
Slowest packet = 8
Minimum flit latency = 22
Average flit latency = 494.985
Maximum flit latency = 9508
Slowest flit = 44
Minimum fragmentation = 0
Average fragmentation = 2017.2
Maximum fragmentation = 9490
Minimum injected packet rate = 0 (at node 3)
Average injected packet rate = 1.71875e-05
Maximum injected packet rate = 0.0004 (at node 62)
Minimum accepted packet rate = 0 (at node 0)
Average accepted packet rate = 1.30208e-05
Maximum accepted packet rate = 0.000366667 (at node 58)
Minimum injected flit rate = 0 (at node 3)
Average injected flit rate = 8.125e-05
Maximum injected flit rate = 0.002 (at node 62)
Minimum accepted flit rate = 0 (at node 0)
Average accepted flit rate = 6.92708e-05
Maximum accepted flit rate = 0.00196667 (at node 58)
Total number of injected packets = 33
Total number of injected flits = 156
Average injected packet length = 4.72727
Total number of accepted packets = 25
Total number of accepted flits = 133
Average accepted packet length = 5.32
Total in-flight flits = 24 (0 measured)
Warmup ends after 30000 cycles.
Beginning measurements...
===== Time: 40000 =====
Class 0:
Packets read from trace = 696 of 31326528 (0%)
Future packets = 1
Waiting packets = 0
Stalled packets = 630
Packets pending injection = 26
Packets in flight = 9
Minimum packet latency = 537
Average packet latency = 1651.75
Maximum packet latency = 3158
Minimum network latency = 537
Average network latency = 1649.5
Maximum network latency = 3155
Slowest packet = 37
Minimum flit latency = 34
Average flit latency = 428.6
Maximum flit latency = 3146
Slowest flit = 181
Minimum fragmentation = 496
Average fragmentation = 1610.75
Maximum fragmentation = 3117
Minimum injected packet rate = 0 (at node 0)
Average injected packet rate = 9.375e-06
Maximum injected packet rate = 0.0005 (at node 63)
Minimum accepted packet rate = 0 (at node 0)
Average accepted packet rate = 7.8125e-06
Maximum accepted packet rate = 0.0004 (at node 61)
Minimum injected flit rate = 0 (at node 0)
Average injected flit rate = 4.53125e-05
Maximum injected flit rate = 0.0025 (at node 63)
Minimum accepted flit rate = 0 (at node 0)
Average accepted flit rate = 3.90625e-05
Maximum accepted flit rate = 0.0024 (at node 61)
Total number of injected packets = 6
Total number of injected flits = 29
Average injected packet length = 4.83333
Total number of accepted packets = 5
Total number of accepted flits = 25
Average accepted packet length = 5
Total in-flight flits = 29 (6 measured)
===== Time: 50000 =====
Class 0:
Packets read from trace = 860 of 31326528 (0%)
Future packets = 1
Waiting packets = 0
Stalled packets = 785
Packets pending injection = 33
Packets in flight = 11
Minimum packet latency = 537
Average packet latency = 1651.75
Maximum packet latency = 3158
Minimum network latency = 537
Average network latency = 1649.5
Maximum network latency = 3155
Slowest packet = 37
Minimum flit latency = 34
Average flit latency = 428.6
Maximum flit latency = 3146
Slowest flit = 181
Minimum fragmentation = 496
Average fragmentation = 1610.75
Maximum fragmentation = 3117
Minimum injected packet rate = 0 (at node 0)
Average injected packet rate = 6.25e-06
Maximum injected packet rate = 0.00025 (at node 63)
Minimum accepted packet rate = 0 (at node 0)
Average accepted packet rate = 3.90625e-06
Maximum accepted packet rate = 0.0002 (at node 61)
Minimum injected flit rate = 0 (at node 0)
Average injected flit rate = 3.04687e-05
Maximum injected flit rate = 0.00125 (at node 63)
Minimum accepted flit rate = 0 (at node 0)
Average accepted flit rate = 1.95313e-05
Maximum accepted flit rate = 0.0012 (at node 61)
Total number of injected packets = 8
Total number of injected flits = 39
Average injected packet length = 4.875
Total number of accepted packets = 5
Total number of accepted flits = 25
Average accepted packet length = 5
Total in-flight flits = 39 (16 measured)
===== Time: 60000 =====
Class 0:
Packets read from trace = 1036 of 31326528 (0%)
Future packets = 1
Waiting packets = 0
Stalled packets = 939
Packets pending injection = 48
Packets in flight = 16
Minimum packet latency = 537
Average packet latency = 3870.6
Maximum packet latency = 12746
Minimum network latency = 537
Average network latency = 3868.2
Maximum network latency = 12743
Slowest packet = 38
Minimum flit latency = 34
Average flit latency = 5953.89
Maximum flit latency = 37156
Slowest flit = 81
Minimum fragmentation = 496
Average fragmentation = 3829.6
Maximum fragmentation = 12705
Minimum injected packet rate = 0 (at node 2)
Average injected packet rate = 6.77083e-06
Maximum injected packet rate = 0.0002 (at node 63)
Minimum accepted packet rate = 0 (at node 0)
Average accepted packet rate = 3.64583e-06
Maximum accepted packet rate = 0.000166667 (at node 61)
Minimum injected flit rate = 0 (at node 2)
Average injected flit rate = 3.22917e-05
Maximum injected flit rate = 0.001 (at node 63)
Minimum accepted flit rate = 0 (at node 0)
Average accepted flit rate = 1.82292e-05
Maximum accepted flit rate = 0.000966667 (at node 61)
Total number of injected packets = 13
Total number of injected flits = 62
Average injected packet length = 4.76923
Total number of accepted packets = 7
Total number of accepted flits = 35
Average accepted packet length = 5
Total in-flight flits = 64 (46 measured)
===== Time: 70000 =====
Class 0:
Packets read from trace = 1173 of 31326528 (0%)
Future packets = 1
Waiting packets = 0
Stalled packets = 1061
Packets pending injection = 61
Packets in flight = 17
Minimum packet latency = 537
Average packet latency = 6128.5
Maximum packet latency = 17418
Minimum network latency = 537
Average network latency = 6125.83
Maximum network latency = 17414
Slowest packet = 42
Minimum flit latency = 34
Average flit latency = 7087.03
Maximum flit latency = 37156
Slowest flit = 81
Minimum fragmentation = 496
Average fragmentation = 6087.33
Maximum fragmentation = 17376
Minimum injected packet rate = 0 (at node 2)
Average injected packet rate = 5.85938e-06
Maximum injected packet rate = 0.000175 (at node 63)
Minimum accepted packet rate = 0 (at node 0)
Average accepted packet rate = 3.125e-06
Maximum accepted packet rate = 0.00015 (at node 61)
Minimum injected flit rate = 0 (at node 2)
Average injected flit rate = 2.8125e-05
Maximum injected flit rate = 0.000875 (at node 63)
Minimum accepted flit rate = 0 (at node 0)
Average accepted flit rate = 1.52344e-05
Maximum accepted flit rate = 0.00075 (at node 61)
Total number of injected packets = 15
Total number of injected flits = 72
Average injected packet length = 4.8
Total number of accepted packets = 8
Total number of accepted flits = 39
Average accepted packet length = 4.875
Total in-flight flits = 70 (52 measured)
===== Time: 80000 =====
Class 0:
Packets read from trace = 1247 of 31326528 (0%)
Future packets = 1
Waiting packets = 1
Stalled packets = 1126
Packets pending injection = 69
Packets in flight = 17
Minimum packet latency = 537
Average packet latency = 6128.5
Maximum packet latency = 17418
Minimum network latency = 537
Average network latency = 6125.83
Maximum network latency = 17414
Slowest packet = 42
Minimum flit latency = 34
Average flit latency = 7087.03
Maximum flit latency = 37156
Slowest flit = 81
Minimum fragmentation = 496
Average fragmentation = 6087.33
Maximum fragmentation = 17376
Minimum injected packet rate = 0 (at node 2)
Average injected packet rate = 4.6875e-06
Maximum injected packet rate = 0.00014 (at node 63)
Minimum accepted packet rate = 0 (at node 0)
Average accepted packet rate = 2.5e-06
Maximum accepted packet rate = 0.00012 (at node 61)
Minimum injected flit rate = 0 (at node 2)
Average injected flit rate = 2.25e-05
Maximum injected flit rate = 0.0007 (at node 63)
Minimum accepted flit rate = 0 (at node 0)
Average accepted flit rate = 1.21875e-05
Maximum accepted flit rate = 0.0006 (at node 61)
Total number of injected packets = 15
Total number of injected flits = 72
Average injected packet length = 4.8
Total number of accepted packets = 8
Total number of accepted flits = 39
Average accepted packet length = 4.875
Total in-flight flits = 70 (52 measured)
===== Time: 90000 =====
Class 0:
Packets read from trace = 1472 of 31326528 (0%)
Future packets = 1
Waiting packets = 0
Stalled packets = 1315
Packets pending injection = 103
Packets in flight = 20
Minimum packet latency = 537
Average packet latency = 6128.5
Maximum packet latency = 17418
Minimum network latency = 537
Average network latency = 6125.83
Maximum network latency = 17414
Slowest packet = 42
Minimum flit latency = 34
Average flit latency = 6433.44
Maximum flit latency = 37156
Slowest flit = 81
Minimum fragmentation = 496
Average fragmentation = 6087.33
Maximum fragmentation = 17376
Minimum injected packet rate = 0 (at node 4)
Average injected packet rate = 4.6875e-06
Maximum injected packet rate = 0.000116667 (at node 63)
Minimum accepted packet rate = 0 (at node 0)
Average accepted packet rate = 2.08333e-06
Maximum accepted packet rate = 0.0001 (at node 61)
Minimum injected flit rate = 0 (at node 4)
Average injected flit rate = 2.23958e-05
Maximum injected flit rate = 0.000583333 (at node 63)
Minimum accepted flit rate = 0 (at node 0)
Average accepted flit rate = 1.11979e-05
Maximum accepted flit rate = 0.0005 (at node 61)
Total number of injected packets = 18
Total number of injected flits = 86
Average injected packet length = 4.77778
Total number of accepted packets = 8
Total number of accepted flits = 43
Average accepted packet length = 5.375
Total in-flight flits = 81 (63 measured)
===== Time: 100000 =====
Class 0:
Packets read from trace = 1693 of 31326528 (0%)
Future packets = 1
Waiting packets = 0
Stalled packets = 1502
Packets pending injection = 135
Packets in flight = 22
Minimum packet latency = 537
Average packet latency = 6128.5
Maximum packet latency = 17418
Minimum network latency = 537
Average network latency = 6125.83
Maximum network latency = 17414
Slowest packet = 42
Minimum flit latency = 34
Average flit latency = 6433.44
Maximum flit latency = 37156
Slowest flit = 81
Minimum fragmentation = 496
Average fragmentation = 6087.33
Maximum fragmentation = 17376
Minimum injected packet rate = 0 (at node 4)
Average injected packet rate = 4.24107e-06
Maximum injected packet rate = 0.0001 (at node 63)
Minimum accepted packet rate = 0 (at node 0)
Average accepted packet rate = 1.78571e-06
Maximum accepted packet rate = 8.57143e-05 (at node 61)
Minimum injected flit rate = 0 (at node 4)
Average injected flit rate = 2.03125e-05
Maximum injected flit rate = 0.0005 (at node 63)
Minimum accepted flit rate = 0 (at node 0)
Average accepted flit rate = 9.59821e-06
Maximum accepted flit rate = 0.000428571 (at node 61)
Total number of injected packets = 19
Total number of injected flits = 91
Average injected packet length = 4.78947
Total number of accepted packets = 8
Total number of accepted flits = 43
Average accepted packet length = 5.375
Total in-flight flits = 91 (73 measured)
===== Time: 110000 =====
Class 0:
Packets read from trace = 1911 of 31326528 (0%)
Future packets = 1
Waiting packets = 0
Stalled packets = 1693
Packets pending injection = 162
Packets in flight = 22
Minimum packet latency = 537
Average packet latency = 6128.5
Maximum packet latency = 17418
Minimum network latency = 537
Average network latency = 6125.83
Maximum network latency = 17414
Slowest packet = 42
Minimum flit latency = 34
Average flit latency = 6433.44
Maximum flit latency = 37156
Slowest flit = 81
Minimum fragmentation = 496
Average fragmentation = 6087.33
Maximum fragmentation = 17376
Minimum injected packet rate = 0 (at node 4)
Average injected packet rate = 3.71094e-06
Maximum injected packet rate = 8.75e-05 (at node 63)
Minimum accepted packet rate = 0 (at node 0)
Average accepted packet rate = 1.5625e-06
Maximum accepted packet rate = 7.5e-05 (at node 61)
Minimum injected flit rate = 0 (at node 4)
Average injected flit rate = 1.77734e-05
Maximum injected flit rate = 0.0004375 (at node 63)
Minimum accepted flit rate = 0 (at node 0)
Average accepted flit rate = 8.39844e-06
Maximum accepted flit rate = 0.000375 (at node 61)
Total number of injected packets = 19
Total number of injected flits = 91
Average injected packet length = 4.78947
Total number of accepted packets = 8
Total number of accepted flits = 43
Average accepted packet length = 5.375
Total in-flight flits = 91 (73 measured)
===== Time: 120000 =====
Class 0:
Packets read from trace = 2079 of 31326528 (0%)
Future packets = 1
Waiting packets = 0
Stalled packets = 1835
Packets pending injection = 188
Packets in flight = 22
Minimum packet latency = 537
Average packet latency = 6128.5
Maximum packet latency = 17418
Minimum network latency = 537
Average network latency = 6125.83
Maximum network latency = 17414
Slowest packet = 42
Minimum flit latency = 34
Average flit latency = 6433.44
Maximum flit latency = 37156
Slowest flit = 81
Minimum fragmentation = 496
Average fragmentation = 6087.33
Maximum fragmentation = 17376
Minimum injected packet rate = 0 (at node 4)
Average injected packet rate = 3.29861e-06
Maximum injected packet rate = 7.77778e-05 (at node 63)
Minimum accepted packet rate = 0 (at node 0)
Average accepted packet rate = 1.38889e-06
Maximum accepted packet rate = 6.66667e-05 (at node 61)
Minimum injected flit rate = 0 (at node 4)
Average injected flit rate = 1.57986e-05
Maximum injected flit rate = 0.000388889 (at node 63)
Minimum accepted flit rate = 0 (at node 0)
Average accepted flit rate = 7.46528e-06
Maximum accepted flit rate = 0.000333333 (at node 61)
Total number of injected packets = 19
Total number of injected flits = 91
Average injected packet length = 4.78947
Total number of accepted packets = 8
Total number of accepted flits = 43
Average accepted packet length = 5.375
Total in-flight flits = 91 (73 measured)
===== Time: 130000 =====
Class 0:
Packets read from trace = 2170 of 31326528 (0%)
Future packets = 1
Waiting packets = 0
Stalled packets = 1923
Packets pending injection = 191
Packets in flight = 22
Minimum packet latency = 537
Average packet latency = 6128.5
Maximum packet latency = 17418
Minimum network latency = 537
Average network latency = 6125.83
Maximum network latency = 17414
Slowest packet = 42
Minimum flit latency = 34
Average flit latency = 6433.44
Maximum flit latency = 37156
Slowest flit = 81
Minimum fragmentation = 496
Average fragmentation = 6087.33
Maximum fragmentation = 17376
Minimum injected packet rate = 0 (at node 4)
Average injected packet rate = 2.96875e-06
Maximum injected packet rate = 7e-05 (at node 63)
Minimum accepted packet rate = 0 (at node 0)
Average accepted packet rate = 1.25e-06
Maximum accepted packet rate = 6e-05 (at node 61)
Minimum injected flit rate = 0 (at node 4)
Average injected flit rate = 1.42188e-05
Maximum injected flit rate = 0.00035 (at node 63)
Minimum accepted flit rate = 0 (at node 0)
Average accepted flit rate = 6.71875e-06
Maximum accepted flit rate = 0.0003 (at node 61)
Total number of injected packets = 19
Total number of injected flits = 91
Average injected packet length = 4.78947
Total number of accepted packets = 8
Total number of accepted flits = 43
Average accepted packet length = 5.375
Total in-flight flits = 91 (73 measured)
Completed measurements after 130000 cycles.
Draining remaining packets ...
Class 0:
Remaining flits: 71 87 88 89 90 91 92 93 94 95 [...] (88 flits)
Measured flits: 167 168 169 170 171 187 188 189 190 191 [...] (72 flits)
Class 0:
Remaining flits: 71 87 88 89 90 91 92 93 94 95 [...] (84 flits)
Measured flits: 167 168 169 170 171 189 190 191 192 193 [...] (68 flits)
Class 0:
Remaining flits: 71 87 88 89 90 91 92 93 94 95 [...] (76 flits)
Measured flits: 167 168 169 170 171 191 192 193 194 195 [...] (60 flits)
Class 0:
Remaining flits: 71 91 92 93 94 95 96 97 98 99 [...] (64 flits)
Measured flits: 167 168 169 170 171 191 192 193 194 195 [...] (52 flits)
Class 0:
Remaining flits: 71 92 93 94 95 96 97 98 99 100 [...] (61 flits)
Measured flits: 167 168 169 170 171 192 193 194 195 196 [...] (50 flits)
Class 0:
Remaining flits: 71 92 93 94 95 96 97 98 99 100 [...] (61 flits)
Measured flits: 167 168 169 170 171 192 193 194 195 196 [...] (50 flits)
Class 0:
Remaining flits: 94 95 96 97 98 99 100 101 167 168 [...] (55 flits)
Measured flits: 167 168 169 170 171 192 193 194 195 196 [...] (47 flits)
Class 0:
Remaining flits: 97 98 99 100 101 167 168 169 170 171 [...] (47 flits)
Measured flits: 167 168 169 170 171 192 193 194 195 196 [...] (42 flits)
Class 0:
Remaining flits: 97 98 99 100 101 167 168 169 170 171 [...] (27 flits)
Measured flits: 167 168 169 170 171 192 193 194 195 196 [...] (22 flits)
Class 0:
Remaining flits: 97 98 99 100 101 167 168 169 170 171 [...] (25 flits)
Measured flits: 167 168 169 170 171 193 194 195 196 217 [...] (20 flits)
Class 0:
Remaining flits: 97 98 99 100 101 167 168 169 170 171 [...] (21 flits)
Measured flits: 167 168 169 170 171 217 218 219 220 221 [...] (16 flits)
Class 0:
Remaining flits: 97 98 99 100 101 167 168 169 170 171 [...] (21 flits)
Measured flits: 167 168 169 170 171 217 218 219 220 221 [...] (16 flits)
Class 0:
Remaining flits: 99 100 101 168 169 170 171 217 218 219 [...] (18 flits)
Measured flits: 168 169 170 171 217 218 219 220 221 222 [...] (15 flits)
Class 0:
Remaining flits: 217 218 219 220 221 223 224 225 226 256 (10 flits)
Measured flits: 217 218 219 220 221 223 224 225 226 256 (10 flits)
Class 0:
Remaining flits: 218 219 220 221 256 (5 flits)
Measured flits: 218 219 220 221 256 (5 flits)
Class 0:
Remaining flits: 256 (1 flits)
Measured flits: 256 (1 flits)
Class 0:
Remaining flits: 256 (1 flits)
Measured flits: 256 (1 flits)
Class 0:
Remaining flits: 256 (1 flits)
Measured flits: 256 (1 flits)
Class 0:
Remaining flits: 256 (1 flits)
Measured flits: 256 (1 flits)
Class 0:
Remaining flits: 256 (1 flits)
Measured flits: 256 (1 flits)
Class 0:
Remaining flits: 256 (1 flits)
Measured flits: 256 (1 flits)
Class 0:
Remaining flits: 256 (1 flits)
Measured flits: 256 (1 flits)
Class 0:
Remaining flits: 256 (1 flits)
Measured flits: 256 (1 flits)
Class 0:
Remaining flits: 256 (1 flits)
Measured flits: 256 (1 flits)
Class 0:
Remaining flits: 256 (1 flits)
Measured flits: 256 (1 flits)
Class 0:
Remaining flits: 256 (1 flits)
Measured flits: 256 (1 flits)
Class 0:
Remaining flits: 256 (1 flits)
Measured flits: 256 (1 flits)
Class 0:
Remaining flits: 256 (1 flits)
Measured flits: 256 (1 flits)
Class 0:
Remaining flits: 256 (1 flits)
Measured flits: 256 (1 flits)
Class 0:
Remaining flits: 256 (1 flits)
Measured flits: 256 (1 flits)
Class 0:
Remaining flits: 256 (1 flits)
Measured flits: 256 (1 flits)
Class 0:
Remaining flits: 256 (1 flits)
Measured flits: 256 (1 flits)
Class 0:
Remaining flits: 256 (1 flits)
Measured flits: 256 (1 flits)
Class 0:
Remaining flits: 256 (1 flits)
Measured flits: 256 (1 flits)
Class 0:
Remaining flits: 256 (1 flits)
Measured flits: 256 (1 flits)
Class 0:
Remaining flits: 256 (1 flits)
Measured flits: 256 (1 flits)
Class 0:
Remaining flits: 256 (1 flits)
Measured flits: 256 (1 flits)
Class 0:
Remaining flits: 256 (1 flits)
Measured flits: 256 (1 flits)
Class 0:
Remaining flits: 256 (1 flits)
Measured flits: 256 (1 flits)
Class 0:
Remaining flits: 256 (1 flits)
Measured flits: 256 (1 flits)
Class 0:
Remaining flits: 256 (1 flits)
Measured flits: 256 (1 flits)
Class 0:
Remaining flits: 256 (1 flits)
Measured flits: 256 (1 flits)
Class 0:
Remaining flits: 256 (1 flits)
Measured flits: 256 (1 flits)
Class 0:
Remaining flits: 256 (1 flits)
Measured flits: 256 (1 flits)
Class 0:
Remaining flits: 256 (1 flits)
Measured flits: 256 (1 flits)
Class 0:
Remaining flits: 256 (1 flits)
Measured flits: 256 (1 flits)
Class 0:
Remaining flits: 256 (1 flits)
Measured flits: 256 (1 flits)
Class 0:
Remaining flits: 256 (1 flits)
Measured flits: 256 (1 flits)
Class 0:
Remaining flits: 256 (1 flits)
Measured flits: 256 (1 flits)
Class 0:
Remaining flits: 256 (1 flits)
Measured flits: 256 (1 flits)
Class 0:
Remaining flits: 256 (1 flits)
Measured flits: 256 (1 flits)
Class 0:
Remaining flits: 256 (1 flits)
Measured flits: 256 (1 flits)
Class 0:
Remaining flits: 256 (1 flits)
Measured flits: 256 (1 flits)
Class 0:
Remaining flits: 256 (1 flits)
Measured flits: 256 (1 flits)
Class 0:
Remaining flits: 256 (1 flits)
Measured flits: 256 (1 flits)
Class 0:
Remaining flits: 256 (1 flits)
Measured flits: 256 (1 flits)
Class 0:
Remaining flits: 256 (1 flits)
Measured flits: 256 (1 flits)
Class 0:
Remaining flits: 256 (1 flits)
Measured flits: 256 (1 flits)
Class 0:
Remaining flits: 256 (1 flits)
Measured flits: 256 (1 flits)
Class 0:
Remaining flits: 256 (1 flits)
Measured flits: 256 (1 flits)
Class 0:
Remaining flits: 256 (1 flits)
Measured flits: 256 (1 flits)
Class 0:
Remaining flits: 256 (1 flits)
Measured flits: 256 (1 flits)
Class 0:
Remaining flits: 256 (1 flits)
Measured flits: 256 (1 flits)
Class 0:
Remaining flits: 256 (1 flits)
Measured flits: 256 (1 flits)
Class 0:
Remaining flits: 256 (1 flits)
Measured flits: 256 (1 flits)
Class 0:
Remaining flits: 256 (1 flits)
Measured flits: 256 (1 flits)
Class 0:
Remaining flits: 256 (1 flits)
Measured flits: 256 (1 flits)
Class 0:
Remaining flits: 256 (1 flits)
Measured flits: 256 (1 flits)
Class 0:
Remaining flits: 256 (1 flits)
Measured flits: 256 (1 flits)
Class 0:
Remaining flits: 256 (1 flits)
Measured flits: 256 (1 flits)
Class 0:
Remaining flits: 256 (1 flits)
Measured flits: 256 (1 flits)
Class 0:
Remaining flits: 256 (1 flits)
Measured flits: 256 (1 flits)
Class 0:
Remaining flits: 256 (1 flits)
Measured flits: 256 (1 flits)
Class 0:
Remaining flits: 256 (1 flits)
Measured flits: 256 (1 flits)
Class 0:
Remaining flits: 256 (1 flits)
Measured flits: 256 (1 flits)
Class 0:
Remaining flits: 256 (1 flits)
Measured flits: 256 (1 flits)
Class 0:
Remaining flits: 256 (1 flits)
Measured flits: 256 (1 flits)
Class 0:
Remaining flits: 256 (1 flits)
Measured flits: 256 (1 flits)
Class 0:
Remaining flits: 256 (1 flits)
Measured flits: 256 (1 flits)
Class 0:
Remaining flits: 256 (1 flits)
Measured flits: 256 (1 flits)
Class 0:
Remaining flits: 256 (1 flits)
Measured flits: 256 (1 flits)
Class 0:
Remaining flits: 256 (1 flits)
Measured flits: 256 (1 flits)
Class 0:
Remaining flits: 256 (1 flits)
Measured flits: 256 (1 flits)
Class 0:
Remaining flits: 256 (1 flits)
Measured flits: 256 (1 flits)
Class 0:
Remaining flits: 256 (1 flits)
Measured flits: 256 (1 flits)
Class 0:
Remaining flits: 256 (1 flits)
Measured flits: 256 (1 flits)
Class 0:
Remaining flits: 256 (1 flits)
Measured flits: 256 (1 flits)
Class 0:
Remaining flits: 256 (1 flits)
Measured flits: 256 (1 flits)
Class 0:
Remaining flits: 256 (1 flits)
Measured flits: 256 (1 flits)
Class 0:
Remaining flits: 256 (1 flits)
Measured flits: 256 (1 flits)
Class 0:
Remaining flits: 256 (1 flits)
Measured flits: 256 (1 flits)
Class 0:
Remaining flits: 256 (1 flits)
Measured flits: 256 (1 flits)
Class 0:
Remaining flits: 256 (1 flits)
Measured flits: 256 (1 flits)
Class 0:
Remaining flits: 256 (1 flits)
Measured flits: 256 (1 flits)
Class 0:
Remaining flits: 256 (1 flits)
Measured flits: 256 (1 flits)
Class 0:
Remaining flits: 256 (1 flits)
Measured flits: 256 (1 flits)
Class 0:
Remaining flits: 256 (1 flits)
Measured flits: 256 (1 flits)
Class 0:
Remaining flits: 256 (1 flits)
Measured flits: 256 (1 flits)
Class 0:
Remaining flits: 256 (1 flits)
Measured flits: 256 (1 flits)
Class 0:
Remaining flits: 256 (1 flits)
Measured flits: 256 (1 flits)
Class 0:
Remaining flits: 256 (1 flits)
Measured flits: 256 (1 flits)
Time taken is 131000 cycles
====== Traffic class 0 ======

Total number of flits generated = 267, changed lanes = 0
Overall minimum packet latency = 537 (1 samples)
Overall average packet latency = 51145.4 (1 samples)
Overall maximum packet latency = 97769 (1 samples)
Overall minimum network latency = 71 (1 samples)
Overall average network latency = 41488.3 (1 samples)
Overall maximum network latency = 97769 (1 samples)
Overall minimum flit latency = 34 (1 samples)
Overall average flit latency = 44263.3 (1 samples)
Overall maximum flit latency = 116533 (1 samples)
Overall minimum fragmentation = 4 (1 samples)
Overall average fragmentation = 7057.43 (1 samples)
Overall maximum fragmentation = 61681 (1 samples)
Overall minimum injected packet rate = 0 (1 samples)
Overall average injected packet rate = 2.96875e-06 (1 samples)
Overall maximum injected packet rate = 7e-05 (1 samples)
Overall minimum accepted packet rate = 0 (1 samples)
Overall average accepted packet rate = 1.25e-06 (1 samples)
Overall maximum accepted packet rate = 6e-05 (1 samples)
Overall minimum injected flit rate = 0 (1 samples)
Overall average injected flit rate = 1.42188e-05 (1 samples)
Overall maximum injected flit rate = 0.00035 (1 samples)
Overall minimum accepted flit rate = 0 (1 samples)
Overall average accepted flit rate = 6.71875e-06 (1 samples)
Overall maximum accepted flit rate = 0.0003 (1 samples)
Overall average injected packet size = 4.78947 (1 samples)
Overall average accepted packet size = 5.375 (1 samples)
Overall average hops = 5 (1 samples)
Overall throughput of the network (flits/cycle) = 0.00266
Overall throughput of the network (packets/cycle) = 0.00054
Overall workload runtime = 100000 (1 samples)

The distribution of the source packets of size 1 is: 

Source [0] = 0
Source [1] = 1
Source [2] = 1
Source [3] = 0
Source [4] = 0
Source [5] = 0
Source [6] = 0
Source [7] = 0
Source [8] = 0
Source [9] = 0
Source [10] = 0
Source [11] = 0
Source [12] = 0
Source [13] = 0
Source [14] = 0
Source [15] = 0
Source [16] = 0
Source [17] = 0
Source [18] = 0
Source [19] = 0
Source [20] = 0
Source [21] = 0
Source [22] = 0
Source [23] = 0
Source [24] = 0
Source [25] = 0
Source [26] = 0
Source [27] = 0
Source [28] = 0
Source [29] = 0
Source [30] = 0
Source [31] = 0
Source [32] = 0
Source [33] = 0
Source [34] = 0
Source [35] = 0
Source [36] = 0
Source [37] = 0
Source [38] = 0
Source [39] = 0
Source [40] = 0
Source [41] = 0
Source [42] = 0
Source [43] = 0
Source [44] = 0
Source [45] = 0
Source [46] = 0
Source [47] = 0
Source [48] = 0
Source [49] = 0
Source [50] = 0
Source [51] = 0
Source [52] = 0
Source [53] = 0
Source [54] = 0
Source [55] = 0
Source [56] = 0
Source [57] = 0
Source [58] = 0
Source [59] = 0
Source [60] = 0
Source [61] = 0
Source [62] = 0
Source [63] = 0
The distribution of the source packets of size 5 is: 

Source [0] = 3
Source [1] = 4
Source [2] = 3
Source [3] = 1
Source [4] = 0
Source [5] = 1
Source [6] = 0
Source [7] = 0
Source [8] = 0
Source [9] = 0
Source [10] = 0
Source [11] = 0
Source [12] = 0
Source [13] = 0
Source [14] = 0
Source [15] = 0
Source [16] = 0
Source [17] = 0
Source [18] = 0
Source [19] = 0
Source [20] = 0
Source [21] = 0
Source [22] = 0
Source [23] = 0
Source [24] = 0
Source [25] = 0
Source [26] = 0
Source [27] = 0
Source [28] = 0
Source [29] = 0
Source [30] = 0
Source [31] = 0
Source [32] = 5
Source [33] = 5
Source [34] = 0
Source [35] = 0
Source [36] = 0
Source [37] = 0
Source [38] = 0
Source [39] = 0
Source [40] = 0
Source [41] = 1
Source [42] = 0
Source [43] = 0
Source [44] = 0
Source [45] = 0
Source [46] = 1
Source [47] = 0
Source [48] = 0
Source [49] = 0
Source [50] = 0
Source [51] = 0
Source [52] = 0
Source [53] = 0
Source [54] = 0
Source [55] = 0
Source [56] = 0
Source [57] = 1
Source [58] = 0
Source [59] = 0
Source [60] = 0
Source [61] = 6
Source [62] = 14
Source [63] = 8
The distribution of the dest packets of size 1 is: 

dest [0] = 0
dest [1] = 1
dest [2] = 0
dest [3] = 0
dest [4] = 0
dest [5] = 1
dest [6] = 0
dest [7] = 0
dest [8] = 0
dest [9] = 0
dest [10] = 0
dest [11] = 0
dest [12] = 0
dest [13] = 0
dest [14] = 0
dest [15] = 0
dest [16] = 0
dest [17] = 0
dest [18] = 0
dest [19] = 0
dest [20] = 0
dest [21] = 0
dest [22] = 0
dest [23] = 0
dest [24] = 0
dest [25] = 0
dest [26] = 0
dest [27] = 0
dest [28] = 0
dest [29] = 0
dest [30] = 0
dest [31] = 0
dest [32] = 0
dest [33] = 0
dest [34] = 0
dest [35] = 0
dest [36] = 0
dest [37] = 0
dest [38] = 0
dest [39] = 0
dest [40] = 0
dest [41] = 0
dest [42] = 0
dest [43] = 0
dest [44] = 0
dest [45] = 0
dest [46] = 0
dest [47] = 0
dest [48] = 0
dest [49] = 0
dest [50] = 0
dest [51] = 0
dest [52] = 0
dest [53] = 0
dest [54] = 0
dest [55] = 0
dest [56] = 0
dest [57] = 0
dest [58] = 0
dest [59] = 0
dest [60] = 0
dest [61] = 0
dest [62] = 0
dest [63] = 0
The distribution of the dest packets of size 5 is: 

dest [0] = 0
dest [1] = 1
dest [2] = 9
dest [3] = 0
dest [4] = 0
dest [5] = 10
dest [6] = 0
dest [7] = 0
dest [8] = 0
dest [9] = 0
dest [10] = 0
dest [11] = 0
dest [12] = 0
dest [13] = 0
dest [14] = 0
dest [15] = 0
dest [16] = 3
dest [17] = 0
dest [18] = 0
dest [19] = 0
dest [20] = 0
dest [21] = 0
dest [22] = 0
dest [23] = 1
dest [24] = 0
dest [25] = 0
dest [26] = 0
dest [27] = 0
dest [28] = 0
dest [29] = 0
dest [30] = 0
dest [31] = 0
dest [32] = 0
dest [33] = 0
dest [34] = 0
dest [35] = 0
dest [36] = 0
dest [37] = 0
dest [38] = 0
dest [39] = 0
dest [40] = 0
dest [41] = 0
dest [42] = 0
dest [43] = 0
dest [44] = 0
dest [45] = 0
dest [46] = 0
dest [47] = 6
dest [48] = 0
dest [49] = 0
dest [50] = 0
dest [51] = 0
dest [52] = 0
dest [53] = 0
dest [54] = 0
dest [55] = 0
dest [56] = 0
dest [57] = 0
dest [58] = 15
dest [59] = 0
dest [60] = 0
dest [61] = 8
dest [62] = 0
dest [63] = 0Total run time 381.609
