make: Nothing to be done for 'all'.
Master: Running timer....
Master: Running SRC....
BEGIN Configuration File: ./examples/mesh88_lat_blackscholes
// $Id$

topology = mesh;
k = 8;
n = 2;

// Routing
routing_function = planar_adapt;

// Flow control
num_vcs     = 1;
vc_buf_size = 4;
wait_for_tail_credit = 1;

// Router architecture
vc_allocator = islip;
sw_allocator = islip;
alloc_iters  = 1;

credit_delay   = 1;
routing_delay  = 1;
vc_alloc_delay = 1;
sw_alloc_delay = 1;

input_speedup     = 1;
output_speedup    = 1;
internal_speedup  = 1.0;

vc_busy_when_full = 0;

// Traffic
workload=netrace({/home/sarab/Downloads/BookSim_Benchmark_files/fluidanimate_64c_simsmall.tra.bz2,100000000,1,2,1,1,0);

// Simulation
sim_type = workload;

END Configuration File: ./examples/mesh88_lat_blackscholes
Warming up...
===== Time: 10000 =====
Class 0:
Packets read from trace = 160 of 20989170 (0%)
Future packets = 1
Waiting packets = 0
Stalled packets = 135
Packets pending injection = 7
Packets in flight = 9
Minimum packet latency = 94
Average packet latency = 782.625
Maximum packet latency = 1835
Minimum network latency = 94
Average network latency = 782.25
Maximum network latency = 1835
Slowest packet = 14
Minimum flit latency = 46
Average flit latency = 301.275
Maximum flit latency = 1828
Slowest flit = 62
Minimum fragmentation = 0
Average fragmentation = 635.75
Maximum fragmentation = 1773
Minimum injected packet rate = 0 (at node 0)
Average injected packet rate = 2.5e-05
Maximum injected packet rate = 0.0004 (at node 6)
Minimum accepted packet rate = 0 (at node 0)
Average accepted packet rate = 1.25e-05
Maximum accepted packet rate = 0.0003 (at node 58)
Minimum injected flit rate = 0 (at node 0)
Average injected flit rate = 0.000103125
Maximum injected flit rate = 0.0019 (at node 6)
Minimum accepted flit rate = 0 (at node 0)
Average accepted flit rate = 6.25e-05
Maximum accepted flit rate = 0.0015 (at node 58)
Total number of injected packets = 16
Total number of injected flits = 66
Average injected packet length = 4.125
Total number of accepted packets = 8
Total number of accepted flits = 40
Average accepted packet length = 5
Total in-flight flits = 33 (0 measured)
===== Time: 20000 =====
Class 0:
Packets read from trace = 313 of 20989170 (0%)
Future packets = 1
Waiting packets = 0
Stalled packets = 272
Packets pending injection = 16
Packets in flight = 13
Minimum packet latency = 94
Average packet latency = 2688.55
Maximum packet latency = 13793
Minimum network latency = 94
Average network latency = 2687.91
Maximum network latency = 13793
Slowest packet = 3
Minimum flit latency = 46
Average flit latency = 1816.82
Maximum flit latency = 13785
Slowest flit = 7
Minimum fragmentation = 0
Average fragmentation = 2297.73
Maximum fragmentation = 13683
Minimum injected packet rate = 0 (at node 0)
Average injected packet rate = 1.79687e-05
Maximum injected packet rate = 0.00025 (at node 2)
Minimum accepted packet rate = 0 (at node 0)
Average accepted packet rate = 8.59375e-06
Maximum accepted packet rate = 0.00015 (at node 16)
Minimum injected flit rate = 0 (at node 0)
Average injected flit rate = 7.5e-05
Maximum injected flit rate = 0.00095 (at node 6)
Minimum accepted flit rate = 0 (at node 0)
Average accepted flit rate = 4.29687e-05
Maximum accepted flit rate = 0.00075 (at node 16)
Total number of injected packets = 23
Total number of injected flits = 96
Average injected packet length = 4.17391
Total number of accepted packets = 11
Total number of accepted flits = 55
Average accepted packet length = 5
Total in-flight flits = 49 (0 measured)
===== Time: 30000 =====
Class 0:
Packets read from trace = 463 of 20989170 (0%)
Future packets = 1
Waiting packets = 0
Stalled packets = 406
Packets pending injection = 29
Packets in flight = 16
Minimum packet latency = 94
Average packet latency = 2688.55
Maximum packet latency = 13793
Minimum network latency = 94
Average network latency = 2687.91
Maximum network latency = 13793
Slowest packet = 3
Minimum flit latency = 46
Average flit latency = 1816.82
Maximum flit latency = 13785
Slowest flit = 7
Minimum fragmentation = 0
Average fragmentation = 2297.73
Maximum fragmentation = 13683
Minimum injected packet rate = 0 (at node 0)
Average injected packet rate = 1.30208e-05
Maximum injected packet rate = 0.000166667 (at node 2)
Minimum accepted packet rate = 0 (at node 0)
Average accepted packet rate = 5.72917e-06
Maximum accepted packet rate = 0.0001 (at node 16)
Minimum injected flit rate = 0 (at node 0)
Average injected flit rate = 5.46875e-05
Maximum injected flit rate = 0.000633333 (at node 6)
Minimum accepted flit rate = 0 (at node 0)
Average accepted flit rate = 2.86458e-05
Maximum accepted flit rate = 0.0005 (at node 16)
Total number of injected packets = 25
Total number of injected flits = 105
Average injected packet length = 4.2
Total number of accepted packets = 11
Total number of accepted flits = 55
Average accepted packet length = 5
Total in-flight flits = 64 (0 measured)
Warmup ends after 30000 cycles.
Beginning measurements...
===== Time: 40000 =====
Class 0:
Packets read from trace = 611 of 20989170 (0%)
Future packets = 1
Waiting packets = 0
Stalled packets = 540
Packets pending injection = 30
Packets in flight = 25
Minimum packet latency = 6470
Average packet latency = 6470
Maximum packet latency = 6470
Minimum network latency = 6470
Average network latency = 6470
Maximum network latency = 6470
Slowest packet = 27
Minimum flit latency = 94
Average flit latency = 15959.2
Maximum flit latency = 31980
Slowest flit = 49
Minimum fragmentation = 6372
Average fragmentation = 6372
Maximum fragmentation = 6372
Minimum injected packet rate = 0 (at node 0)
Average injected packet rate = 2.03125e-05
Maximum injected packet rate = 0.0003 (at node 3)
Minimum accepted packet rate = 0 (at node 0)
Average accepted packet rate = 6.25e-06
Maximum accepted packet rate = 0.0001 (at node 2)
Minimum injected flit rate = 0 (at node 0)
Average injected flit rate = 9.6875e-05
Maximum injected flit rate = 0.0014 (at node 3)
Minimum accepted flit rate = 0 (at node 0)
Average accepted flit rate = 3.28125e-05
Maximum accepted flit rate = 0.0005 (at node 2)
Total number of injected packets = 13
Total number of injected flits = 62
Average injected packet length = 4.76923
Total number of accepted packets = 4
Total number of accepted flits = 21
Average accepted packet length = 5.25
Total in-flight flits = 108 (57 measured)
===== Time: 50000 =====
Class 0:
Packets read from trace = 754 of 20989170 (0%)
Future packets = 1
Waiting packets = 1
Stalled packets = 671
Packets pending injection = 36
Packets in flight = 27
Minimum packet latency = 1229
Average packet latency = 3849.5
Maximum packet latency = 6470
Minimum network latency = 1229
Average network latency = 3849.5
Maximum network latency = 6470
Slowest packet = 27
Minimum flit latency = 94
Average flit latency = 18459.2
Maximum flit latency = 38825
Slowest flit = 39
Minimum fragmentation = 1128
Average fragmentation = 3750
Maximum fragmentation = 6372
Minimum injected packet rate = 0 (at node 0)
Average injected packet rate = 1.32812e-05
Maximum injected packet rate = 0.00015 (at node 3)
Minimum accepted packet rate = 0 (at node 0)
Average accepted packet rate = 5.46875e-06
Maximum accepted packet rate = 0.0001 (at node 2)
Minimum injected flit rate = 0 (at node 0)
Average injected flit rate = 6.5625e-05
Maximum injected flit rate = 0.00075 (at node 51)
Minimum accepted flit rate = 0 (at node 0)
Average accepted flit rate = 2.8125e-05
Maximum accepted flit rate = 0.0005 (at node 2)
Total number of injected packets = 17
Total number of injected flits = 84
Average injected packet length = 4.94118
Total number of accepted packets = 7
Total number of accepted flits = 36
Average accepted packet length = 5.14286
Total in-flight flits = 118 (77 measured)
===== Time: 60000 =====
Class 0:
Packets read from trace = 891 of 20989170 (0%)
Future packets = 1
Waiting packets = 0
Stalled packets = 796
Packets pending injection = 42
Packets in flight = 30
Minimum packet latency = 1229
Average packet latency = 8901.33
Maximum packet latency = 22929
Minimum network latency = 1229
Average network latency = 8901.33
Maximum network latency = 22929
Slowest packet = 31
Minimum flit latency = 94
Average flit latency = 14331.8
Maximum flit latency = 38825
Slowest flit = 39
Minimum fragmentation = 7
Average fragmentation = 4457.83
Maximum fragmentation = 17152
Minimum injected packet rate = 0 (at node 0)
Average injected packet rate = 1.25e-05
Maximum injected packet rate = 0.0001 (at node 3)
Minimum accepted packet rate = 0 (at node 0)
Average accepted packet rate = 5.72917e-06
Maximum accepted packet rate = 0.0001 (at node 23)
Minimum injected flit rate = 0 (at node 0)
Average injected flit rate = 6.14583e-05
Maximum injected flit rate = 0.0005 (at node 51)
Minimum accepted flit rate = 0 (at node 0)
Average accepted flit rate = 3.33333e-05
Maximum accepted flit rate = 0.000633333 (at node 23)
Total number of injected packets = 24
Total number of injected flits = 118
Average injected packet length = 4.91667
Total number of accepted packets = 11
Total number of accepted flits = 64
Average accepted packet length = 5.81818
Total in-flight flits = 125 (84 measured)
===== Time: 70000 =====
Class 0:
Packets read from trace = 1020 of 20989170 (0%)
Future packets = 1
Waiting packets = 0
Stalled packets = 920
Packets pending injection = 45
Packets in flight = 32
Minimum packet latency = 1229
Average packet latency = 8901.33
Maximum packet latency = 22929
Minimum network latency = 1229
Average network latency = 8901.33
Maximum network latency = 22929
Slowest packet = 31
Minimum flit latency = 94
Average flit latency = 14331.8
Maximum flit latency = 38825
Slowest flit = 39
Minimum fragmentation = 7
Average fragmentation = 4457.83
Maximum fragmentation = 17152
Minimum injected packet rate = 0 (at node 0)
Average injected packet rate = 1.01562e-05
Maximum injected packet rate = 7.5e-05 (at node 3)
Minimum accepted packet rate = 0 (at node 0)
Average accepted packet rate = 4.29688e-06
Maximum accepted packet rate = 7.5e-05 (at node 23)
Minimum injected flit rate = 0 (at node 0)
Average injected flit rate = 5e-05
Maximum injected flit rate = 0.000375 (at node 51)
Minimum accepted flit rate = 0 (at node 0)
Average accepted flit rate = 2.5e-05
Maximum accepted flit rate = 0.000475 (at node 23)
Total number of injected packets = 26
Total number of injected flits = 128
Average injected packet length = 4.92308
Total number of accepted packets = 11
Total number of accepted flits = 64
Average accepted packet length = 5.81818
Total in-flight flits = 135 (94 measured)
===== Time: 80000 =====
Class 0:
Packets read from trace = 1208 of 20989170 (0%)
Future packets = 1
Waiting packets = 0
Stalled packets = 1098
Packets pending injection = 50
Packets in flight = 36
Minimum packet latency = 1229
Average packet latency = 8901.33
Maximum packet latency = 22929
Minimum network latency = 1229
Average network latency = 8901.33
Maximum network latency = 22929
Slowest packet = 31
Minimum flit latency = 94
Average flit latency = 16953.9
Maximum flit latency = 72265
Slowest flit = 42
Minimum fragmentation = 7
Average fragmentation = 4457.83
Maximum fragmentation = 17152
Minimum injected packet rate = 0 (at node 0)
Average injected packet rate = 9.6875e-06
Maximum injected packet rate = 6e-05 (at node 3)
Minimum accepted packet rate = 0 (at node 0)
Average accepted packet rate = 3.75e-06
Maximum accepted packet rate = 6e-05 (at node 2)
Minimum injected flit rate = 0 (at node 0)
Average injected flit rate = 4.71875e-05
Maximum injected flit rate = 0.0003 (at node 51)
Minimum accepted flit rate = 0 (at node 0)
Average accepted flit rate = 2.15625e-05
Maximum accepted flit rate = 0.00038 (at node 23)
Total number of injected packets = 31
Total number of injected flits = 151
Average injected packet length = 4.87097
Total number of accepted packets = 12
Total number of accepted flits = 69
Average accepted packet length = 5.75
Total in-flight flits = 155 (119 measured)
===== Time: 90000 =====
Class 0:
Packets read from trace = 1238 of 20989170 (0%)
Future packets = 1
Waiting packets = 0
Stalled packets = 1128
Packets pending injection = 50
Packets in flight = 36
Minimum packet latency = 1229
Average packet latency = 8901.33
Maximum packet latency = 22929
Minimum network latency = 1229
Average network latency = 8901.33
Maximum network latency = 22929
Slowest packet = 31
Minimum flit latency = 94
Average flit latency = 16953.9
Maximum flit latency = 72265
Slowest flit = 42
Minimum fragmentation = 7
Average fragmentation = 4457.83
Maximum fragmentation = 17152
Minimum injected packet rate = 0 (at node 0)
Average injected packet rate = 8.07292e-06
Maximum injected packet rate = 5e-05 (at node 3)
Minimum accepted packet rate = 0 (at node 0)
Average accepted packet rate = 3.125e-06
Maximum accepted packet rate = 5e-05 (at node 2)
Minimum injected flit rate = 0 (at node 0)
Average injected flit rate = 3.93229e-05
Maximum injected flit rate = 0.00025 (at node 51)
Minimum accepted flit rate = 0 (at node 0)
Average accepted flit rate = 1.79687e-05
Maximum accepted flit rate = 0.000316667 (at node 23)
Total number of injected packets = 31
Total number of injected flits = 151
Average injected packet length = 4.87097
Total number of accepted packets = 12
Total number of accepted flits = 69
Average accepted packet length = 5.75
Total in-flight flits = 155 (119 measured)
===== Time: 100000 =====
Class 0:
Packets read from trace = 1252 of 20989170 (0%)
Future packets = 1
Waiting packets = 0
Stalled packets = 1142
Packets pending injection = 50
Packets in flight = 36
Minimum packet latency = 1229
Average packet latency = 8901.33
Maximum packet latency = 22929
Minimum network latency = 1229
Average network latency = 8901.33
Maximum network latency = 22929
Slowest packet = 31
Minimum flit latency = 94
Average flit latency = 16953.9
Maximum flit latency = 72265
Slowest flit = 42
Minimum fragmentation = 7
Average fragmentation = 4457.83
Maximum fragmentation = 17152
Minimum injected packet rate = 0 (at node 0)
Average injected packet rate = 6.91964e-06
Maximum injected packet rate = 4.28571e-05 (at node 3)
Minimum accepted packet rate = 0 (at node 0)
Average accepted packet rate = 2.67857e-06
Maximum accepted packet rate = 4.28571e-05 (at node 2)
Minimum injected flit rate = 0 (at node 0)
Average injected flit rate = 3.37054e-05
Maximum injected flit rate = 0.000214286 (at node 51)
Minimum accepted flit rate = 0 (at node 0)
Average accepted flit rate = 1.54018e-05
Maximum accepted flit rate = 0.000271429 (at node 23)
Total number of injected packets = 31
Total number of injected flits = 151
Average injected packet length = 4.87097
Total number of accepted packets = 12
Total number of accepted flits = 69
Average accepted packet length = 5.75
Total in-flight flits = 155 (119 measured)
===== Time: 110000 =====
Class 0:
Packets read from trace = 1280 of 20989170 (0%)
Future packets = 1
Waiting packets = 0
Stalled packets = 1167
Packets pending injection = 50
Packets in flight = 39
Minimum packet latency = 1229
Average packet latency = 8901.33
Maximum packet latency = 22929
Minimum network latency = 1229
Average network latency = 8901.33
Maximum network latency = 22929
Slowest packet = 31
Minimum flit latency = 94
Average flit latency = 16953.9
Maximum flit latency = 72265
Slowest flit = 42
Minimum fragmentation = 7
Average fragmentation = 4457.83
Maximum fragmentation = 17152
Minimum injected packet rate = 0 (at node 0)
Average injected packet rate = 6.64062e-06
Maximum injected packet rate = 3.75e-05 (at node 3)
Minimum accepted packet rate = 0 (at node 0)
Average accepted packet rate = 2.34375e-06
Maximum accepted packet rate = 3.75e-05 (at node 2)
Minimum injected flit rate = 0 (at node 0)
Average injected flit rate = 3.22266e-05
Maximum injected flit rate = 0.0001875 (at node 51)
Minimum accepted flit rate = 0 (at node 0)
Average accepted flit rate = 1.34766e-05
Maximum accepted flit rate = 0.0002375 (at node 23)
Total number of injected packets = 34
Total number of injected flits = 165
Average injected packet length = 4.85294
Total number of accepted packets = 12
Total number of accepted flits = 69
Average accepted packet length = 5.75
Total in-flight flits = 170 (134 measured)
===== Time: 120000 =====
Class 0:
Packets read from trace = 1299 of 20989170 (0%)
Future packets = 1
Waiting packets = 0
Stalled packets = 1186
Packets pending injection = 50
Packets in flight = 39
Minimum packet latency = 1229
Average packet latency = 8901.33
Maximum packet latency = 22929
Minimum network latency = 1229
Average network latency = 8901.33
Maximum network latency = 22929
Slowest packet = 31
Minimum flit latency = 94
Average flit latency = 16953.9
Maximum flit latency = 72265
Slowest flit = 42
Minimum fragmentation = 7
Average fragmentation = 4457.83
Maximum fragmentation = 17152
Minimum injected packet rate = 0 (at node 0)
Average injected packet rate = 5.90278e-06
Maximum injected packet rate = 3.33333e-05 (at node 3)
Minimum accepted packet rate = 0 (at node 0)
Average accepted packet rate = 2.08333e-06
Maximum accepted packet rate = 3.33333e-05 (at node 2)
Minimum injected flit rate = 0 (at node 0)
Average injected flit rate = 2.86458e-05
Maximum injected flit rate = 0.000166667 (at node 51)
Minimum accepted flit rate = 0 (at node 0)
Average accepted flit rate = 1.19792e-05
Maximum accepted flit rate = 0.000211111 (at node 23)
Total number of injected packets = 34
Total number of injected flits = 165
Average injected packet length = 4.85294
Total number of accepted packets = 12
Total number of accepted flits = 69
Average accepted packet length = 5.75
Total in-flight flits = 170 (134 measured)
===== Time: 130000 =====
Class 0:
Packets read from trace = 1319 of 20989170 (0%)
Future packets = 1
Waiting packets = 0
Stalled packets = 1206
Packets pending injection = 50
Packets in flight = 39
Minimum packet latency = 1229
Average packet latency = 8901.33
Maximum packet latency = 22929
Minimum network latency = 1229
Average network latency = 8901.33
Maximum network latency = 22929
Slowest packet = 31
Minimum flit latency = 94
Average flit latency = 16953.9
Maximum flit latency = 72265
Slowest flit = 42
Minimum fragmentation = 7
Average fragmentation = 4457.83
Maximum fragmentation = 17152
Minimum injected packet rate = 0 (at node 0)
Average injected packet rate = 5.3125e-06
Maximum injected packet rate = 3e-05 (at node 3)
Minimum accepted packet rate = 0 (at node 0)
Average accepted packet rate = 1.875e-06
Maximum accepted packet rate = 3e-05 (at node 2)
Minimum injected flit rate = 0 (at node 0)
Average injected flit rate = 2.57812e-05
Maximum injected flit rate = 0.00015 (at node 51)
Minimum accepted flit rate = 0 (at node 0)
Average accepted flit rate = 1.07812e-05
Maximum accepted flit rate = 0.00019 (at node 23)
Total number of injected packets = 34
Total number of injected flits = 165
Average injected packet length = 4.85294
Total number of accepted packets = 12
Total number of accepted flits = 69
Average accepted packet length = 5.75
Total in-flight flits = 170 (134 measured)
Completed measurements after 130000 cycles.
Draining remaining packets ...
Class 0:
Remaining flits: 43 44 45 46 47 51 52 57 81 82 [...] (170 flits)
Measured flits: 124 125 126 127 128 129 130 131 132 133 [...] (134 flits)
Class 0:
Remaining flits: 43 44 45 46 47 51 52 57 81 82 [...] (170 flits)
Measured flits: 124 125 126 127 128 129 130 131 132 133 [...] (134 flits)
Class 0:
Remaining flits: 43 44 45 46 47 52 57 81 82 88 [...] (165 flits)
Measured flits: 124 125 126 127 128 129 130 131 132 133 [...] (130 flits)
Class 0:
Remaining flits: 43 44 45 46 47 88 94 95 96 97 [...] (154 flits)
Measured flits: 124 125 126 127 128 129 130 131 132 133 [...] (123 flits)
Class 0:
Remaining flits: 43 44 45 46 47 88 94 95 96 97 [...] (140 flits)
Measured flits: 124 125 126 127 128 129 130 131 132 133 [...] (109 flits)
Class 0:
Remaining flits: 43 44 45 46 47 88 94 95 96 97 [...] (130 flits)
Measured flits: 124 125 126 127 128 129 130 131 132 133 [...] (100 flits)
Class 0:
Remaining flits: 43 44 45 46 47 88 94 95 96 97 [...] (126 flits)
Measured flits: 124 125 126 127 128 129 130 131 132 133 [...] (100 flits)
Class 0:
Remaining flits: 43 44 45 46 47 88 94 95 96 97 [...] (122 flits)
Measured flits: 124 125 126 127 128 129 130 131 132 133 [...] (100 flits)
Class 0:
Remaining flits: 43 44 45 46 47 88 94 95 96 97 [...] (113 flits)
Measured flits: 124 125 126 127 128 129 130 131 132 133 [...] (91 flits)
Class 0:
Remaining flits: 43 44 45 46 47 88 94 95 96 97 [...] (112 flits)
Measured flits: 124 125 126 127 128 129 130 131 132 133 [...] (90 flits)
Class 0:
Remaining flits: 88 94 95 96 97 98 99 100 101 102 [...] (104 flits)
Measured flits: 124 125 126 127 128 129 130 131 132 133 [...] (90 flits)
Class 0:
Remaining flits: 88 94 95 96 97 98 99 100 101 102 [...] (92 flits)
Measured flits: 124 125 126 127 128 129 130 131 132 133 [...] (80 flits)
Class 0:
Remaining flits: 88 94 95 96 97 98 99 100 101 102 [...] (87 flits)
Measured flits: 124 125 126 127 128 129 130 131 132 133 [...] (75 flits)
Class 0:
Remaining flits: 88 94 95 96 97 98 99 100 101 102 [...] (83 flits)
Measured flits: 124 125 126 127 128 129 130 131 132 133 [...] (71 flits)
Class 0:
Remaining flits: 88 94 95 96 97 98 99 100 101 102 [...] (64 flits)
Measured flits: 129 130 131 132 133 135 136 137 138 164 [...] (52 flits)
Class 0:
Remaining flits: 88 94 95 96 97 98 99 100 101 102 [...] (57 flits)
Measured flits: 129 130 131 132 133 164 165 166 167 168 [...] (45 flits)
Class 0:
Remaining flits: 88 94 95 96 97 98 99 100 101 102 [...] (57 flits)
Measured flits: 129 130 131 132 133 164 165 166 167 168 [...] (45 flits)
Class 0:
Remaining flits: 88 94 95 96 97 98 99 100 101 102 [...] (52 flits)
Measured flits: 129 130 131 132 133 164 165 166 167 168 [...] (40 flits)
Class 0:
Remaining flits: 88 94 95 96 97 98 99 100 101 102 [...] (47 flits)
Measured flits: 129 130 131 132 133 164 165 166 167 168 [...] (35 flits)
Class 0:
Remaining flits: 88 94 95 96 97 98 99 100 101 102 [...] (47 flits)
Measured flits: 129 130 131 132 133 164 165 166 167 168 [...] (35 flits)
Class 0:
Remaining flits: 88 94 95 96 97 98 99 100 101 102 [...] (47 flits)
Measured flits: 129 130 131 132 133 164 165 166 167 168 [...] (35 flits)
Class 0:
Remaining flits: 88 94 95 96 97 98 99 100 101 102 [...] (42 flits)
Measured flits: 129 130 131 132 133 164 165 166 167 168 [...] (30 flits)
Class 0:
Remaining flits: 88 94 95 96 97 98 99 100 101 102 [...] (42 flits)
Measured flits: 129 130 131 132 133 164 165 166 167 168 [...] (30 flits)
Class 0:
Remaining flits: 88 94 95 96 97 98 99 100 101 102 [...] (42 flits)
Measured flits: 129 130 131 132 133 164 165 166 167 168 [...] (30 flits)
Class 0:
Remaining flits: 88 94 95 96 97 98 99 100 101 102 [...] (38 flits)
Measured flits: 129 130 131 132 133 164 165 166 167 168 [...] (26 flits)
Class 0:
Remaining flits: 88 94 95 96 97 98 99 100 101 102 [...] (37 flits)
Measured flits: 129 130 131 132 133 164 165 166 167 168 [...] (25 flits)
Class 0:
Remaining flits: 88 94 95 96 97 98 99 100 101 102 [...] (37 flits)
Measured flits: 129 130 131 132 133 164 165 166 167 168 [...] (25 flits)
Class 0:
Remaining flits: 88 94 95 96 97 98 99 100 101 102 [...] (36 flits)
Measured flits: 129 130 131 132 133 164 165 166 167 168 [...] (24 flits)
Class 0:
Remaining flits: 88 94 95 96 97 98 99 100 101 102 [...] (32 flits)
Measured flits: 129 130 131 132 133 164 165 166 167 168 [...] (20 flits)
Class 0:
Remaining flits: 88 94 95 96 97 98 99 100 101 102 [...] (32 flits)
Measured flits: 129 130 131 132 133 164 165 166 167 168 [...] (20 flits)
Class 0:
Remaining flits: 88 94 95 96 97 98 99 100 101 102 [...] (32 flits)
Measured flits: 129 130 131 132 133 164 165 166 167 168 [...] (20 flits)
Class 0:
Remaining flits: 88 94 95 96 97 98 99 100 101 102 [...] (32 flits)
Measured flits: 129 130 131 132 133 164 165 166 167 168 [...] (20 flits)
Class 0:
Remaining flits: 88 94 95 96 97 98 99 100 101 102 [...] (32 flits)
Measured flits: 129 130 131 132 133 164 165 166 167 168 [...] (20 flits)
Class 0:
Remaining flits: 88 94 95 96 97 98 99 100 101 102 [...] (32 flits)
Measured flits: 129 130 131 132 133 164 165 166 167 168 [...] (20 flits)
Class 0:
Remaining flits: 88 94 95 96 97 98 99 100 101 102 [...] (32 flits)
Measured flits: 129 130 131 132 133 164 165 166 167 168 [...] (20 flits)
Class 0:
Remaining flits: 88 94 95 96 97 98 99 100 101 102 [...] (32 flits)
Measured flits: 129 130 131 132 133 164 165 166 167 168 [...] (20 flits)
Class 0:
Remaining flits: 88 94 95 96 97 98 99 100 101 102 [...] (32 flits)
Measured flits: 129 130 131 132 133 164 165 166 167 168 [...] (20 flits)
Class 0:
Remaining flits: 88 94 95 96 97 98 99 100 101 102 [...] (32 flits)
Measured flits: 129 130 131 132 133 164 165 166 167 168 [...] (20 flits)
Class 0:
Remaining flits: 88 94 95 96 97 98 99 100 101 102 [...] (32 flits)
Measured flits: 129 130 131 132 133 164 165 166 167 168 [...] (20 flits)
Class 0:
Remaining flits: 88 94 95 96 97 98 99 100 101 102 [...] (32 flits)
Measured flits: 129 130 131 132 133 164 165 166 167 168 [...] (20 flits)
Class 0:
Remaining flits: 88 94 95 96 97 98 99 100 101 102 [...] (32 flits)
Measured flits: 129 130 131 132 133 164 165 166 167 168 [...] (20 flits)
Class 0:
Remaining flits: 88 94 95 96 97 98 99 100 101 102 [...] (32 flits)
Measured flits: 129 130 131 132 133 164 165 166 167 168 [...] (20 flits)
Class 0:
Remaining flits: 88 94 95 96 97 98 99 100 101 102 [...] (32 flits)
Measured flits: 129 130 131 132 133 164 165 166 167 168 [...] (20 flits)
Class 0:
Remaining flits: 88 94 95 96 97 98 99 100 101 102 [...] (32 flits)
Measured flits: 129 130 131 132 133 164 165 166 167 168 [...] (20 flits)
Class 0:
Remaining flits: 88 94 95 96 97 98 99 100 101 102 [...] (32 flits)
Measured flits: 129 130 131 132 133 164 165 166 167 168 [...] (20 flits)
Class 0:
Remaining flits: 88 94 95 96 97 98 99 100 101 102 [...] (32 flits)
Measured flits: 129 130 131 132 133 164 165 166 167 168 [...] (20 flits)
Class 0:
Remaining flits: 88 94 95 96 97 98 99 100 101 102 [...] (32 flits)
Measured flits: 129 130 131 132 133 164 165 166 167 168 [...] (20 flits)
Class 0:
Remaining flits: 88 94 95 96 97 98 99 100 101 102 [...] (32 flits)
Measured flits: 129 130 131 132 133 164 165 166 167 168 [...] (20 flits)
Class 0:
Remaining flits: 88 94 95 96 97 98 99 100 101 102 [...] (32 flits)
Measured flits: 129 130 131 132 133 164 165 166 167 168 [...] (20 flits)
Class 0:
Remaining flits: 88 94 95 96 97 98 99 100 101 102 [...] (32 flits)
Measured flits: 129 130 131 132 133 164 165 166 167 168 [...] (20 flits)
Class 0:
Remaining flits: 88 94 95 96 97 98 99 100 101 102 [...] (32 flits)
Measured flits: 129 130 131 132 133 164 165 166 167 168 [...] (20 flits)
Class 0:
Remaining flits: 88 94 95 96 97 98 99 100 101 102 [...] (32 flits)
Measured flits: 129 130 131 132 133 164 165 166 167 168 [...] (20 flits)
Class 0:
Remaining flits: 88 94 95 96 97 98 99 100 101 102 [...] (32 flits)
Measured flits: 129 130 131 132 133 164 165 166 167 168 [...] (20 flits)
Class 0:
Remaining flits: 88 94 95 96 97 98 99 100 101 102 [...] (32 flits)
Measured flits: 129 130 131 132 133 164 165 166 167 168 [...] (20 flits)
Class 0:
Remaining flits: 88 94 95 96 97 98 99 100 101 102 [...] (32 flits)
Measured flits: 129 130 131 132 133 164 165 166 167 168 [...] (20 flits)
Class 0:
Remaining flits: 88 94 95 96 97 98 99 100 101 102 [...] (32 flits)
Measured flits: 129 130 131 132 133 164 165 166 167 168 [...] (20 flits)
Class 0:
Remaining flits: 88 94 95 96 97 98 99 100 101 102 [...] (32 flits)
Measured flits: 129 130 131 132 133 164 165 166 167 168 [...] (20 flits)
Class 0:
Remaining flits: 88 94 95 96 97 98 99 100 101 102 [...] (32 flits)
Measured flits: 129 130 131 132 133 164 165 166 167 168 [...] (20 flits)
Class 0:
Remaining flits: 88 94 95 96 97 98 99 100 101 102 [...] (32 flits)
Measured flits: 129 130 131 132 133 164 165 166 167 168 [...] (20 flits)
Class 0:
Remaining flits: 88 94 95 96 97 98 99 100 101 102 [...] (32 flits)
Measured flits: 129 130 131 132 133 164 165 166 167 168 [...] (20 flits)
Class 0:
Remaining flits: 88 94 95 96 97 98 99 100 101 102 [...] (32 flits)
Measured flits: 129 130 131 132 133 164 165 166 167 168 [...] (20 flits)
Class 0:
Remaining flits: 88 94 95 96 97 98 99 100 101 102 [...] (32 flits)
Measured flits: 129 130 131 132 133 164 165 166 167 168 [...] (20 flits)
Class 0:
Remaining flits: 88 94 95 96 97 98 99 100 101 102 [...] (32 flits)
Measured flits: 129 130 131 132 133 164 165 166 167 168 [...] (20 flits)
Class 0:
Remaining flits: 88 94 95 96 97 98 99 100 101 102 [...] (32 flits)
Measured flits: 129 130 131 132 133 164 165 166 167 168 [...] (20 flits)
Class 0:
Remaining flits: 88 94 95 96 97 98 99 100 101 102 [...] (32 flits)
Measured flits: 129 130 131 132 133 164 165 166 167 168 [...] (20 flits)
Class 0:
Remaining flits: 88 94 95 96 97 98 99 100 101 102 [...] (32 flits)
Measured flits: 129 130 131 132 133 164 165 166 167 168 [...] (20 flits)
Class 0:
Remaining flits: 88 94 95 96 97 98 99 100 101 102 [...] (32 flits)
Measured flits: 129 130 131 132 133 164 165 166 167 168 [...] (20 flits)
Class 0:
Remaining flits: 88 94 95 96 97 98 99 100 101 102 [...] (32 flits)
Measured flits: 129 130 131 132 133 164 165 166 167 168 [...] (20 flits)
Class 0:
Remaining flits: 88 94 95 96 97 98 99 100 101 102 [...] (32 flits)
Measured flits: 129 130 131 132 133 164 165 166 167 168 [...] (20 flits)
Class 0:
Remaining flits: 88 94 95 96 97 98 99 100 101 102 [...] (32 flits)
Measured flits: 129 130 131 132 133 164 165 166 167 168 [...] (20 flits)
Class 0:
Remaining flits: 88 94 95 96 97 98 99 100 101 102 [...] (32 flits)
Measured flits: 129 130 131 132 133 164 165 166 167 168 [...] (20 flits)
Class 0:
Remaining flits: 88 94 95 96 97 98 99 100 101 102 [...] (32 flits)
Measured flits: 129 130 131 132 133 164 165 166 167 168 [...] (20 flits)
Class 0:
Remaining flits: 88 94 95 96 97 98 99 100 101 102 [...] (32 flits)
Measured flits: 129 130 131 132 133 164 165 166 167 168 [...] (20 flits)
Class 0:
Remaining flits: 88 94 95 96 97 98 99 100 101 102 [...] (32 flits)
Measured flits: 129 130 131 132 133 164 165 166 167 168 [...] (20 flits)
Class 0:
Remaining flits: 88 94 95 96 97 98 99 100 101 102 [...] (32 flits)
Measured flits: 129 130 131 132 133 164 165 166 167 168 [...] (20 flits)
Class 0:
Remaining flits: 88 94 95 96 97 98 99 100 101 102 [...] (32 flits)
Measured flits: 129 130 131 132 133 164 165 166 167 168 [...] (20 flits)
Class 0:
Remaining flits: 88 94 95 96 97 98 99 100 101 102 [...] (32 flits)
Measured flits: 129 130 131 132 133 164 165 166 167 168 [...] (20 flits)
Class 0:
Remaining flits: 88 94 95 96 97 98 99 100 101 102 [...] (32 flits)
Measured flits: 129 130 131 132 133 164 165 166 167 168 [...] (20 flits)
Class 0:
Remaining flits: 88 94 95 96 97 98 99 100 101 102 [...] (32 flits)
Measured flits: 129 130 131 132 133 164 165 166 167 168 [...] (20 flits)
Class 0:
Remaining flits: 88 94 95 96 97 98 99 100 101 102 [...] (32 flits)
Measured flits: 129 130 131 132 133 164 165 166 167 168 [...] (20 flits)
Class 0:
Remaining flits: 88 94 95 96 97 98 99 100 101 102 [...] (32 flits)
Measured flits: 129 130 131 132 133 164 165 166 167 168 [...] (20 flits)
Class 0:
Remaining flits: 88 94 95 96 97 98 99 100 101 102 [...] (32 flits)
Measured flits: 129 130 131 132 133 164 165 166 167 168 [...] (20 flits)
Class 0:
Remaining flits: 88 94 95 96 97 98 99 100 101 102 [...] (32 flits)
Measured flits: 129 130 131 132 133 164 165 166 167 168 [...] (20 flits)
Class 0:
Remaining flits: 88 94 95 96 97 98 99 100 101 102 [...] (32 flits)
Measured flits: 129 130 131 132 133 164 165 166 167 168 [...] (20 flits)
Class 0:
Remaining flits: 88 94 95 96 97 98 99 100 101 102 [...] (32 flits)
Measured flits: 129 130 131 132 133 164 165 166 167 168 [...] (20 flits)
Class 0:
Remaining flits: 88 94 95 96 97 98 99 100 101 102 [...] (32 flits)
Measured flits: 129 130 131 132 133 164 165 166 167 168 [...] (20 flits)
Class 0:
Remaining flits: 88 94 95 96 97 98 99 100 101 102 [...] (32 flits)
Measured flits: 129 130 131 132 133 164 165 166 167 168 [...] (20 flits)
Class 0:
Remaining flits: 88 94 95 96 97 98 99 100 101 102 [...] (32 flits)
Measured flits: 129 130 131 132 133 164 165 166 167 168 [...] (20 flits)
Class 0:
Remaining flits: 88 94 95 96 97 98 99 100 101 102 [...] (32 flits)
Measured flits: 129 130 131 132 133 164 165 166 167 168 [...] (20 flits)
Class 0:
Remaining flits: 88 94 95 96 97 98 99 100 101 102 [...] (32 flits)
Measured flits: 129 130 131 132 133 164 165 166 167 168 [...] (20 flits)
Class 0:
Remaining flits: 88 94 95 96 97 98 99 100 101 102 [...] (32 flits)
Measured flits: 129 130 131 132 133 164 165 166 167 168 [...] (20 flits)
Class 0:
Remaining flits: 88 94 95 96 97 98 99 100 101 102 [...] (32 flits)
Measured flits: 129 130 131 132 133 164 165 166 167 168 [...] (20 flits)
Class 0:
Remaining flits: 88 94 95 96 97 98 99 100 101 102 [...] (32 flits)
Measured flits: 129 130 131 132 133 164 165 166 167 168 [...] (20 flits)
Class 0:
Remaining flits: 88 94 95 96 97 98 99 100 101 102 [...] (32 flits)
Measured flits: 129 130 131 132 133 164 165 166 167 168 [...] (20 flits)
Class 0:
Remaining flits: 88 94 95 96 97 98 99 100 101 102 [...] (32 flits)
Measured flits: 129 130 131 132 133 164 165 166 167 168 [...] (20 flits)
Class 0:
Remaining flits: 88 94 95 96 97 98 99 100 101 102 [...] (32 flits)
Measured flits: 129 130 131 132 133 164 165 166 167 168 [...] (20 flits)
Class 0:
Remaining flits: 88 94 95 96 97 98 99 100 101 102 [...] (32 flits)
Measured flits: 129 130 131 132 133 164 165 166 167 168 [...] (20 flits)
Class 0:
Remaining flits: 88 94 95 96 97 98 99 100 101 102 [...] (32 flits)
Measured flits: 129 130 131 132 133 164 165 166 167 168 [...] (20 flits)
Class 0:
Remaining flits: 88 94 95 96 97 98 99 100 101 102 [...] (32 flits)
Measured flits: 129 130 131 132 133 164 165 166 167 168 [...] (20 flits)
Class 0:
Remaining flits: 88 94 95 96 97 98 99 100 101 102 [...] (32 flits)
Measured flits: 129 130 131 132 133 164 165 166 167 168 [...] (20 flits)
Class 0:
Remaining flits: 88 94 95 96 97 98 99 100 101 102 [...] (32 flits)
Measured flits: 129 130 131 132 133 164 165 166 167 168 [...] (20 flits)
Time taken is 131000 cycles
====== Traffic class 0 ======

Total number of flits generated = 294, changed lanes = 0
Overall minimum packet latency = 1229 (1 samples)
Overall average packet latency = 65361.6 (1 samples)
Overall maximum packet latency = 125601 (1 samples)
Overall minimum network latency = 108 (1 samples)
Overall average network latency = 56182.8 (1 samples)
Overall maximum network latency = 99422 (1 samples)
Overall minimum flit latency = 56 (1 samples)
Overall average flit latency = 50028.6 (1 samples)
Overall maximum flit latency = 126606 (1 samples)
Overall minimum fragmentation = 3 (1 samples)
Overall average fragmentation = 8215.1 (1 samples)
Overall maximum fragmentation = 76653 (1 samples)
Overall minimum injected packet rate = 0 (1 samples)
Overall average injected packet rate = 5.3125e-06 (1 samples)
Overall maximum injected packet rate = 3e-05 (1 samples)
Overall minimum accepted packet rate = 0 (1 samples)
Overall average accepted packet rate = 1.875e-06 (1 samples)
Overall maximum accepted packet rate = 3e-05 (1 samples)
Overall minimum injected flit rate = 0 (1 samples)
Overall average injected flit rate = 2.57812e-05 (1 samples)
Overall maximum injected flit rate = 0.00015 (1 samples)
Overall minimum accepted flit rate = 0 (1 samples)
Overall average accepted flit rate = 1.07812e-05 (1 samples)
Overall maximum accepted flit rate = 0.00019 (1 samples)
Overall average injected packet size = 4.85294 (1 samples)
Overall average accepted packet size = 5.75 (1 samples)
Overall average hops = 8.25806 (1 samples)
Overall throughput of the network (flits/cycle) = 0.00262
Overall throughput of the network (packets/cycle) = 0.00054
Overall workload runtime = 100000 (1 samples)

The distribution of the source packets of size 1 is: 

Source [0] = 0
Source [1] = 0
Source [2] = 2
Source [3] = 0
Source [4] = 0
Source [5] = 0
Source [6] = 0
Source [7] = 0
Source [8] = 0
Source [9] = 0
Source [10] = 0
Source [11] = 0
Source [12] = 0
Source [13] = 0
Source [14] = 0
Source [15] = 0
Source [16] = 0
Source [17] = 0
Source [18] = 0
Source [19] = 0
Source [20] = 0
Source [21] = 0
Source [22] = 0
Source [23] = 0
Source [24] = 0
Source [25] = 0
Source [26] = 0
Source [27] = 0
Source [28] = 0
Source [29] = 0
Source [30] = 0
Source [31] = 0
Source [32] = 0
Source [33] = 0
Source [34] = 0
Source [35] = 0
Source [36] = 0
Source [37] = 0
Source [38] = 1
Source [39] = 0
Source [40] = 0
Source [41] = 0
Source [42] = 0
Source [43] = 0
Source [44] = 0
Source [45] = 0
Source [46] = 0
Source [47] = 0
Source [48] = 0
Source [49] = 0
Source [50] = 0
Source [51] = 0
Source [52] = 0
Source [53] = 0
Source [54] = 0
Source [55] = 0
Source [56] = 0
Source [57] = 0
Source [58] = 1
Source [59] = 0
Source [60] = 0
Source [61] = 0
Source [62] = 0
Source [63] = 0
The distribution of the source packets of size 5 is: 

Source [0] = 0
Source [1] = 1
Source [2] = 4
Source [3] = 3
Source [4] = 4
Source [5] = 3
Source [6] = 6
Source [7] = 2
Source [8] = 0
Source [9] = 1
Source [10] = 1
Source [11] = 0
Source [12] = 0
Source [13] = 0
Source [14] = 0
Source [15] = 0
Source [16] = 0
Source [17] = 1
Source [18] = 0
Source [19] = 0
Source [20] = 0
Source [21] = 2
Source [22] = 1
Source [23] = 1
Source [24] = 0
Source [25] = 1
Source [26] = 0
Source [27] = 0
Source [28] = 0
Source [29] = 1
Source [30] = 0
Source [31] = 0
Source [32] = 1
Source [33] = 0
Source [34] = 0
Source [35] = 0
Source [36] = 0
Source [37] = 0
Source [38] = 2
Source [39] = 0
Source [40] = 5
Source [41] = 2
Source [42] = 0
Source [43] = 0
Source [44] = 1
Source [45] = 1
Source [46] = 0
Source [47] = 0
Source [48] = 1
Source [49] = 3
Source [50] = 0
Source [51] = 3
Source [52] = 1
Source [53] = 0
Source [54] = 3
Source [55] = 0
Source [56] = 0
Source [57] = 2
Source [58] = 0
Source [59] = 1
Source [60] = 0
Source [61] = 0
Source [62] = 0
Source [63] = 0
The distribution of the dest packets of size 1 is: 

dest [0] = 0
dest [1] = 0
dest [2] = 0
dest [3] = 0
dest [4] = 0
dest [5] = 0
dest [6] = 0
dest [7] = 0
dest [8] = 0
dest [9] = 0
dest [10] = 0
dest [11] = 0
dest [12] = 0
dest [13] = 0
dest [14] = 0
dest [15] = 0
dest [16] = 0
dest [17] = 0
dest [18] = 0
dest [19] = 0
dest [20] = 0
dest [21] = 0
dest [22] = 0
dest [23] = 0
dest [24] = 0
dest [25] = 0
dest [26] = 0
dest [27] = 0
dest [28] = 0
dest [29] = 0
dest [30] = 0
dest [31] = 0
dest [32] = 0
dest [33] = 0
dest [34] = 0
dest [35] = 0
dest [36] = 0
dest [37] = 0
dest [38] = 2
dest [39] = 0
dest [40] = 1
dest [41] = 0
dest [42] = 0
dest [43] = 0
dest [44] = 0
dest [45] = 0
dest [46] = 0
dest [47] = 0
dest [48] = 0
dest [49] = 0
dest [50] = 0
dest [51] = 0
dest [52] = 0
dest [53] = 0
dest [54] = 0
dest [55] = 0
dest [56] = 0
dest [57] = 0
dest [58] = 1
dest [59] = 0
dest [60] = 0
dest [61] = 0
dest [62] = 0
dest [63] = 0
The distribution of the dest packets of size 5 is: 

dest [0] = 0
dest [1] = 0
dest [2] = 8
dest [3] = 0
dest [4] = 0
dest [5] = 11
dest [6] = 0
dest [7] = 0
dest [8] = 0
dest [9] = 0
dest [10] = 0
dest [11] = 0
dest [12] = 0
dest [13] = 0
dest [14] = 0
dest [15] = 0
dest [16] = 4
dest [17] = 0
dest [18] = 0
dest [19] = 0
dest [20] = 0
dest [21] = 0
dest [22] = 0
dest [23] = 7
dest [24] = 0
dest [25] = 0
dest [26] = 0
dest [27] = 0
dest [28] = 0
dest [29] = 0
dest [30] = 0
dest [31] = 0
dest [32] = 0
dest [33] = 0
dest [34] = 0
dest [35] = 0
dest [36] = 0
dest [37] = 0
dest [38] = 0
dest [39] = 0
dest [40] = 7
dest [41] = 0
dest [42] = 0
dest [43] = 0
dest [44] = 0
dest [45] = 0
dest [46] = 0
dest [47] = 7
dest [48] = 0
dest [49] = 0
dest [50] = 0
dest [51] = 0
dest [52] = 0
dest [53] = 0
dest [54] = 0
dest [55] = 0
dest [56] = 0
dest [57] = 0
dest [58] = 11
dest [59] = 0
dest [60] = 0
dest [61] = 3
dest [62] = 0
dest [63] = 0Total run time 1315.35
