make: Nothing to be done for 'all'.
Master: Running timer....
Master: Running SRC....
BEGIN Configuration File: ./examples/bitrev
// Topology

topology = mesh;
k = 4;
n = 2;

// Routing
routing_function = xy_yx;

// Flow control
num_vcs     = 4;
vc_buf_size = 4;
wait_for_tail_credit = 0;

// Router architecture
vc_allocator = islip;
sw_allocator = islip;
alloc_iters  = 1;

credit_delay   = 1;
routing_delay  = 1;
vc_alloc_delay = 1;
sw_alloc_delay = 1;

input_speedup     = 1;
output_speedup    = 1;
internal_speedup  = 1.0;

vc_busy_when_full = 0;

// Traffic
traffic = neighbor;
packet_size = 1;

// Simulation
sim_type = throughput;

injection_rate = 0.05;

END Configuration File: ./examples/bitrev
===== Time: 10000 =====
Class 0:
Minimum packet latency = 30
Average packet latency = 47.7023
Maximum packet latency = 139
Minimum network latency = 31
Average network latency = 48.7023
Maximum network latency = 140
Slowest packet = 3836
Minimum flit latency = 31
Average flit latency = 48.7023
Maximum flit latency = 140
Slowest flit = 3836
Minimum fragmentation = 0
Average fragmentation = 0
Maximum fragmentation = 0
Minimum injected packet rate = 0.0458 (at node 0)
Average injected packet rate = 0.0494687
Maximum injected packet rate = 0.0515 (at node 12)
Minimum accepted packet rate = 0.0457 (at node 5)
Average accepted packet rate = 0.049275
Maximum accepted packet rate = 0.0512 (at node 1)
Minimum injected flit rate = 0.0458 (at node 0)
Average injected flit rate = 0.0494687
Maximum injected flit rate = 0.0515 (at node 12)
Minimum accepted flit rate = 0.0457 (at node 5)
Average accepted flit rate = 0.049275
Maximum accepted flit rate = 0.0512 (at node 1)
Total number of injected packets = 7915
Total number of injected flits = 7915
Average injected packet length = 1
Total number of accepted packets = 7884
Total number of accepted flits = 7884
Average accepted packet length = 1
Total in-flight flits = 31 (0 measured)
===== Time: 20000 =====
Class 0:
Minimum packet latency = 30
Average packet latency = 47.3855
Maximum packet latency = 139
Minimum network latency = 31
Average network latency = 48.3855
Maximum network latency = 140
Slowest packet = 3836
Minimum flit latency = 31
Average flit latency = 48.3855
Maximum flit latency = 140
Slowest flit = 3836
Minimum fragmentation = 0
Average fragmentation = 0
Maximum fragmentation = 0
Minimum injected packet rate = 0.0483 (at node 8)
Average injected packet rate = 0.0500375
Maximum injected packet rate = 0.0526 (at node 12)
Minimum accepted packet rate = 0.04815 (at node 13)
Average accepted packet rate = 0.049925
Maximum accepted packet rate = 0.0524 (at node 1)
Minimum injected flit rate = 0.0483 (at node 8)
Average injected flit rate = 0.0500375
Maximum injected flit rate = 0.0526 (at node 12)
Minimum accepted flit rate = 0.04815 (at node 13)
Average accepted flit rate = 0.049925
Maximum accepted flit rate = 0.0524 (at node 1)
Total number of injected packets = 16012
Total number of injected flits = 16012
Average injected packet length = 1
Total number of accepted packets = 15976
Total number of accepted flits = 15976
Average accepted packet length = 1
Total in-flight flits = 36 (0 measured)
===== Time: 30000 =====
Class 0:
Minimum packet latency = 30
Average packet latency = 46.9268
Maximum packet latency = 104
Minimum network latency = 31
Average network latency = 47.9268
Maximum network latency = 105
Slowest packet = 17546
Minimum flit latency = 31
Average flit latency = 47.9268
Maximum flit latency = 105
Slowest flit = 17546
Minimum fragmentation = 0
Average fragmentation = 0
Maximum fragmentation = 0
Minimum injected packet rate = 0.045 (at node 15)
Average injected packet rate = 0.0495875
Maximum injected packet rate = 0.0541 (at node 13)
Minimum accepted packet rate = 0.0447 (at node 0)
Average accepted packet rate = 0.049625
Maximum accepted packet rate = 0.0544 (at node 2)
Minimum injected flit rate = 0.045 (at node 15)
Average injected flit rate = 0.0495875
Maximum injected flit rate = 0.0541 (at node 13)
Minimum accepted flit rate = 0.0447 (at node 0)
Average accepted flit rate = 0.049625
Maximum accepted flit rate = 0.0544 (at node 2)
Total number of injected packets = 7934
Total number of injected flits = 7934
Average injected packet length = 1
Total number of accepted packets = 7940
Total number of accepted flits = 7940
Average accepted packet length = 1
Total in-flight flits = 30 (0 measured)
===== Time: 40000 =====
Class 0:
Minimum packet latency = 30
Average packet latency = 47.1497
Maximum packet latency = 115
Minimum network latency = 31
Average network latency = 48.1497
Maximum network latency = 116
Slowest packet = 30606
Minimum flit latency = 31
Average flit latency = 48.1528
Maximum flit latency = 116
Slowest flit = 30606
Minimum fragmentation = 0
Average fragmentation = 0
Maximum fragmentation = 0
Minimum injected packet rate = 0.0473 (at node 6)
Average injected packet rate = 0.0501938
Maximum injected packet rate = 0.0543 (at node 14)
Minimum accepted packet rate = 0.0473 (at node 11)
Average accepted packet rate = 0.0501187
Maximum accepted packet rate = 0.0538 (at node 3)
Minimum injected flit rate = 0.0473 (at node 6)
Average injected flit rate = 0.0501938
Maximum injected flit rate = 0.0543 (at node 14)
Minimum accepted flit rate = 0.0473 (at node 11)
Average accepted flit rate = 0.0501187
Maximum accepted flit rate = 0.0538 (at node 3)
Total number of injected packets = 8031
Total number of injected flits = 8031
Average injected packet length = 1
Total number of accepted packets = 8019
Total number of accepted flits = 8019
Average accepted packet length = 1
Total in-flight flits = 42 (42 measured)
===== Time: 50000 =====
Class 0:
Minimum packet latency = 30
Average packet latency = 47.1142
Maximum packet latency = 115
Minimum network latency = 31
Average network latency = 48.1142
Maximum network latency = 116
Slowest packet = 30606
Minimum flit latency = 31
Average flit latency = 48.1158
Maximum flit latency = 116
Slowest flit = 30606
Minimum fragmentation = 0
Average fragmentation = 0
Maximum fragmentation = 0
Minimum injected packet rate = 0.04815 (at node 10)
Average injected packet rate = 0.0503
Maximum injected packet rate = 0.05345 (at node 14)
Minimum accepted packet rate = 0.0482 (at node 15)
Average accepted packet rate = 0.0502594
Maximum accepted packet rate = 0.0533 (at node 3)
Minimum injected flit rate = 0.04815 (at node 10)
Average injected flit rate = 0.0503
Maximum injected flit rate = 0.05345 (at node 14)
Minimum accepted flit rate = 0.0482 (at node 15)
Average accepted flit rate = 0.0502594
Maximum accepted flit rate = 0.0533 (at node 3)
Total number of injected packets = 16096
Total number of injected flits = 16096
Average injected packet length = 1
Total number of accepted packets = 16083
Total number of accepted flits = 16083
Average accepted packet length = 1
Total in-flight flits = 43 (43 measured)
===== Time: 60000 =====
Class 0:
Minimum packet latency = 29
Average packet latency = 47.1738
Maximum packet latency = 128
Minimum network latency = 30
Average network latency = 48.1738
Maximum network latency = 129
Slowest packet = 41824
Minimum flit latency = 30
Average flit latency = 48.1748
Maximum flit latency = 129
Slowest flit = 41824
Minimum fragmentation = 0
Average fragmentation = 0
Maximum fragmentation = 0
Minimum injected packet rate = 0.0482 (at node 10)
Average injected packet rate = 0.0501896
Maximum injected packet rate = 0.0528667 (at node 14)
Minimum accepted packet rate = 0.0482333 (at node 15)
Average accepted packet rate = 0.0501542
Maximum accepted packet rate = 0.0528333 (at node 3)
Minimum injected flit rate = 0.0482 (at node 10)
Average injected flit rate = 0.0501896
Maximum injected flit rate = 0.0528667 (at node 14)
Minimum accepted flit rate = 0.0482333 (at node 15)
Average accepted flit rate = 0.0501542
Maximum accepted flit rate = 0.0528333 (at node 3)
Total number of injected packets = 24091
Total number of injected flits = 24091
Average injected packet length = 1
Total number of accepted packets = 24074
Total number of accepted flits = 24074
Average accepted packet length = 1
Total in-flight flits = 47 (47 measured)
Draining remaining packets ...
Class 0:
Remaining flits: 47969 47974 47982 47985 47991 47996 47997 48001 48003 48005 [...] (36 flits)
Measured flits: 47969 47974 47982 47985 47991 47996 47997 48001 48003 48005 [...] (36 flits)
Class 0:
Remaining flits: 47982 47985 47996 47997 48003 48005 48012 48013 48014 48015 [...] (29 flits)
Measured flits: 47982 47985 47996 47997 48003 48005 48012 48013 48014 48015 [...] (29 flits)
Class 0:
Remaining flits: 47985 47996 48003 48005 48012 48013 48015 48016 48017 48019 [...] (20 flits)
Measured flits: 47985 47996 48003 48005 48012 48013 48015 48016 48017 48019 [...] (20 flits)
Class 0:
Remaining flits: 48003 48013 48017 48022 48023 48025 48028 48029 48033 (9 flits)
Measured flits: 48003 48013 48017 48022 48023 48025 48028 48029 48033 (9 flits)
Class 0:
Remaining flits: 48013 48017 48023 48028 48029 48033 (6 flits)
Measured flits: 48013 48017 48023 48028 48029 48033 (6 flits)
Class 0:
Remaining flits: 48017 48028 48033 (3 flits)
Measured flits: 48017 48028 48033 (3 flits)
Class 0:
Remaining flits: 48028 48033 (2 flits)
Measured flits: 48028 48033 (2 flits)
Class 0:
Remaining flits: (0 flits)
Measured flits: (0 flits)
Class 0:
Remaining flits: (0 flits)
Measured flits: (0 flits)
Class 0:
Remaining flits: (0 flits)
Measured flits: (0 flits)
Class 0:
Remaining flits: (0 flits)
Measured flits: (0 flits)
Class 0:
Remaining flits: (0 flits)
Measured flits: (0 flits)
Class 0:
Remaining flits: (0 flits)
Measured flits: (0 flits)
Class 0:
Remaining flits: (0 flits)
Measured flits: (0 flits)
Class 0:
Remaining flits: (0 flits)
Measured flits: (0 flits)
Class 0:
Remaining flits: (0 flits)
Measured flits: (0 flits)
Class 0:
Remaining flits: (0 flits)
Measured flits: (0 flits)
Class 0:
Remaining flits: (0 flits)
Measured flits: (0 flits)
Class 0:
Remaining flits: (0 flits)
Measured flits: (0 flits)
Class 0:
Remaining flits: (0 flits)
Measured flits: (0 flits)
Class 0:
Remaining flits: (0 flits)
Measured flits: (0 flits)
Class 0:
Remaining flits: (0 flits)
Measured flits: (0 flits)
Class 0:
Remaining flits: (0 flits)
Measured flits: (0 flits)
Class 0:
Remaining flits: (0 flits)
Measured flits: (0 flits)
Class 0:
Remaining flits: (0 flits)
Measured flits: (0 flits)
Class 0:
Remaining flits: (0 flits)
Measured flits: (0 flits)
Class 0:
Remaining flits: (0 flits)
Measured flits: (0 flits)
Class 0:
Remaining flits: (0 flits)
Measured flits: (0 flits)
Class 0:
Remaining flits: (0 flits)
Measured flits: (0 flits)
Class 0:
Remaining flits: (0 flits)
Measured flits: (0 flits)
Class 0:
Remaining flits: (0 flits)
Measured flits: (0 flits)
Class 0:
Remaining flits: (0 flits)
Measured flits: (0 flits)
Class 0:
Remaining flits: (0 flits)
Measured flits: (0 flits)
Class 0:
Remaining flits: (0 flits)
Measured flits: (0 flits)
Class 0:
Remaining flits: (0 flits)
Measured flits: (0 flits)
Class 0:
Remaining flits: (0 flits)
Measured flits: (0 flits)
Class 0:
Remaining flits: (0 flits)
Measured flits: (0 flits)
Class 0:
Remaining flits: (0 flits)
Measured flits: (0 flits)
Class 0:
Remaining flits: (0 flits)
Measured flits: (0 flits)
Class 0:
Remaining flits: (0 flits)
Measured flits: (0 flits)
Class 0:
Remaining flits: (0 flits)
Measured flits: (0 flits)
Class 0:
Remaining flits: (0 flits)
Measured flits: (0 flits)
Class 0:
Remaining flits: (0 flits)
Measured flits: (0 flits)
Class 0:
Remaining flits: (0 flits)
Measured flits: (0 flits)
Class 0:
Remaining flits: (0 flits)
Measured flits: (0 flits)
Class 0:
Remaining flits: (0 flits)
Measured flits: (0 flits)
Class 0:
Remaining flits: (0 flits)
Measured flits: (0 flits)
Class 0:
Remaining flits: (0 flits)
Measured flits: (0 flits)
Class 0:
Remaining flits: (0 flits)
Measured flits: (0 flits)
Class 0:
Remaining flits: (0 flits)
Measured flits: (0 flits)
Class 0:
Remaining flits: (0 flits)
Measured flits: (0 flits)
Class 0:
Remaining flits: (0 flits)
Measured flits: (0 flits)
Class 0:
Remaining flits: (0 flits)
Measured flits: (0 flits)
Class 0:
Remaining flits: (0 flits)
Measured flits: (0 flits)
Class 0:
Remaining flits: (0 flits)
Measured flits: (0 flits)
Class 0:
Remaining flits: (0 flits)
Measured flits: (0 flits)
Class 0:
Remaining flits: (0 flits)
Measured flits: (0 flits)
Class 0:
Remaining flits: (0 flits)
Measured flits: (0 flits)
Class 0:
Remaining flits: (0 flits)
Measured flits: (0 flits)
Class 0:
Remaining flits: (0 flits)
Measured flits: (0 flits)
Class 0:
Remaining flits: (0 flits)
Measured flits: (0 flits)
Class 0:
Remaining flits: (0 flits)
Measured flits: (0 flits)
Class 0:
Remaining flits: (0 flits)
Measured flits: (0 flits)
Class 0:
Remaining flits: (0 flits)
Measured flits: (0 flits)
Class 0:
Remaining flits: (0 flits)
Measured flits: (0 flits)
Class 0:
Remaining flits: (0 flits)
Measured flits: (0 flits)
Class 0:
Remaining flits: (0 flits)
Measured flits: (0 flits)
Class 0:
Remaining flits: (0 flits)
Measured flits: (0 flits)
Class 0:
Remaining flits: (0 flits)
Measured flits: (0 flits)
Class 0:
Remaining flits: (0 flits)
Measured flits: (0 flits)
Class 0:
Remaining flits: (0 flits)
Measured flits: (0 flits)
Class 0:
Remaining flits: (0 flits)
Measured flits: (0 flits)
Class 0:
Remaining flits: (0 flits)
Measured flits: (0 flits)
Class 0:
Remaining flits: (0 flits)
Measured flits: (0 flits)
Class 0:
Remaining flits: (0 flits)
Measured flits: (0 flits)
Class 0:
Remaining flits: (0 flits)
Measured flits: (0 flits)
Class 0:
Remaining flits: (0 flits)
Measured flits: (0 flits)
Class 0:
Remaining flits: (0 flits)
Measured flits: (0 flits)
Class 0:
Remaining flits: (0 flits)
Measured flits: (0 flits)
Class 0:
Remaining flits: (0 flits)
Measured flits: (0 flits)
Class 0:
Remaining flits: (0 flits)
Measured flits: (0 flits)
Class 0:
Remaining flits: (0 flits)
Measured flits: (0 flits)
Class 0:
Remaining flits: (0 flits)
Measured flits: (0 flits)
Class 0:
Remaining flits: (0 flits)
Measured flits: (0 flits)
Class 0:
Remaining flits: (0 flits)
Measured flits: (0 flits)
Class 0:
Remaining flits: (0 flits)
Measured flits: (0 flits)
Class 0:
Remaining flits: (0 flits)
Measured flits: (0 flits)
Class 0:
Remaining flits: (0 flits)
Measured flits: (0 flits)
Class 0:
Remaining flits: (0 flits)
Measured flits: (0 flits)
Class 0:
Remaining flits: (0 flits)
Measured flits: (0 flits)
Class 0:
Remaining flits: (0 flits)
Measured flits: (0 flits)
Class 0:
Remaining flits: (0 flits)
Measured flits: (0 flits)
Class 0:
Remaining flits: (0 flits)
Measured flits: (0 flits)
Class 0:
Remaining flits: (0 flits)
Measured flits: (0 flits)
Class 0:
Remaining flits: (0 flits)
Measured flits: (0 flits)
Class 0:
Remaining flits: (0 flits)
Measured flits: (0 flits)
Class 0:
Remaining flits: (0 flits)
Measured flits: (0 flits)
Class 0:
Remaining flits: (0 flits)
Measured flits: (0 flits)
Class 0:
Remaining flits: (0 flits)
Measured flits: (0 flits)
Class 0:
Remaining flits: (0 flits)
Measured flits: (0 flits)
Class 0:
Remaining flits: (0 flits)
Measured flits: (0 flits)
Time taken is 61000 cycles
====== Traffic class 0 ======

Total number of flits generated = 48037, changed lanes = 47143
Overall minimum packet latency = 29 (1 samples)
Overall average packet latency = 47.1876 (1 samples)
Overall maximum packet latency = 128 (1 samples)
Overall minimum network latency = 30 (1 samples)
Overall average network latency = 48.1876 (1 samples)
Overall maximum network latency = 129 (1 samples)
Overall minimum flit latency = 30 (1 samples)
Overall average flit latency = 48.1885 (1 samples)
Overall maximum flit latency = 129 (1 samples)
Overall minimum fragmentation = 0 (1 samples)
Overall average fragmentation = 0 (1 samples)
Overall maximum fragmentation = 0 (1 samples)
Overall minimum injected packet rate = 0.0482 (1 samples)
Overall average injected packet rate = 0.0501896 (1 samples)
Overall maximum injected packet rate = 0.0528667 (1 samples)
Overall minimum accepted packet rate = 0.0482333 (1 samples)
Overall average accepted packet rate = 0.0501542 (1 samples)
Overall maximum accepted packet rate = 0.0528333 (1 samples)
Overall minimum injected flit rate = 0.0482 (1 samples)
Overall average injected flit rate = 0.0501896 (1 samples)
Overall maximum injected flit rate = 0.0528667 (1 samples)
Overall minimum accepted flit rate = 0.0482333 (1 samples)
Overall average accepted flit rate = 0.0501542 (1 samples)
Overall maximum accepted flit rate = 0.0528333 (1 samples)
Overall average injected packet size = 1 (1 samples)
Overall average accepted packet size = 1 (1 samples)
Overall average hops = 4.02055 (1 samples)
Overall throughput of the network (flits/cycle) = 1.60123
Overall throughput of the network (packets/cycle) = 1.60123
Total run time 92.0029
