make: Nothing to be done for 'all'.
Master: Running timer....
Master: Running SRC....
BEGIN Configuration File: ./examples/bitrev
// Topology

topology = mesh;
k = 16;
n = 2;

// Routing
routing_function = dor;

// Flow control
num_vcs     = 4;
vc_buf_size = 4;
wait_for_tail_credit = 0;

// Router architecture
vc_allocator = islip;
sw_allocator = islip;
alloc_iters  = 1;

credit_delay   = 1;
routing_delay  = 1;
vc_alloc_delay = 1;
sw_alloc_delay = 1;

input_speedup     = 1;
output_speedup    = 1;
internal_speedup  = 1.0;

vc_busy_when_full = 0;

// Traffic
traffic = uniform;
packet_size = 1;

// Simulation
sim_type = throughput;

injection_rate = 0.05;

END Configuration File: ./examples/bitrev
===== Time: 1000 =====
Class 0:
Minimum packet latency = 7
Average packet latency = 87.7418
Maximum packet latency = 328
Minimum network latency = 8
Average network latency = 88.7418
Maximum network latency = 329
Slowest packet = 1800
Minimum flit latency = 8
Average flit latency = 88.7418
Maximum flit latency = 329
Slowest flit = 1800
Minimum fragmentation = 0
Average fragmentation = 0
Maximum fragmentation = 0
Minimum injected packet rate = 0.032 (at node 166)
Average injected packet rate = 0.0500859
Maximum injected packet rate = 0.07 (at node 47)
Minimum accepted packet rate = 0.028 (at node 93)
Average accepted packet rate = 0.0456523
Maximum accepted packet rate = 0.065 (at node 152)
Minimum injected flit rate = 0.032 (at node 166)
Average injected flit rate = 0.0500859
Maximum injected flit rate = 0.07 (at node 47)
Minimum accepted flit rate = 0.028 (at node 93)
Average accepted flit rate = 0.0456523
Maximum accepted flit rate = 0.065 (at node 152)
Total number of injected packets = 12822
Total number of injected flits = 12822
Average injected packet length = 1
Total number of accepted packets = 11687
Total number of accepted flits = 11687
Average accepted packet length = 1
Total in-flight flits = 1135 (0 measured)
===== Time: 2000 =====
Class 0:
Minimum packet latency = 7
Average packet latency = 87.9258
Maximum packet latency = 328
Minimum network latency = 8
Average network latency = 88.9258
Maximum network latency = 329
Slowest packet = 1800
Minimum flit latency = 8
Average flit latency = 88.9258
Maximum flit latency = 329
Slowest flit = 1800
Minimum fragmentation = 0
Average fragmentation = 0
Maximum fragmentation = 0
Minimum injected packet rate = 0.039 (at node 9)
Average injected packet rate = 0.0499551
Maximum injected packet rate = 0.065 (at node 135)
Minimum accepted packet rate = 0.034 (at node 238)
Average accepted packet rate = 0.0476523
Maximum accepted packet rate = 0.061 (at node 78)
Minimum injected flit rate = 0.039 (at node 9)
Average injected flit rate = 0.0499551
Maximum injected flit rate = 0.065 (at node 135)
Minimum accepted flit rate = 0.034 (at node 238)
Average accepted flit rate = 0.0476523
Maximum accepted flit rate = 0.061 (at node 78)
Total number of injected packets = 25577
Total number of injected flits = 25577
Average injected packet length = 1
Total number of accepted packets = 24398
Total number of accepted flits = 24398
Average accepted packet length = 1
Total in-flight flits = 1179 (0 measured)
===== Time: 3000 =====
Class 0:
Minimum packet latency = 7
Average packet latency = 88.8594
Maximum packet latency = 278
Minimum network latency = 8
Average network latency = 89.8594
Maximum network latency = 279
Slowest packet = 31035
Minimum flit latency = 8
Average flit latency = 89.8594
Maximum flit latency = 279
Slowest flit = 31035
Minimum fragmentation = 0
Average fragmentation = 0
Maximum fragmentation = 0
Minimum injected packet rate = 0.035 (at node 27)
Average injected packet rate = 0.0504062
Maximum injected packet rate = 0.071 (at node 78)
Minimum accepted packet rate = 0.032 (at node 176)
Average accepted packet rate = 0.0504023
Maximum accepted packet rate = 0.069 (at node 202)
Minimum injected flit rate = 0.035 (at node 27)
Average injected flit rate = 0.0504062
Maximum injected flit rate = 0.071 (at node 78)
Minimum accepted flit rate = 0.032 (at node 176)
Average accepted flit rate = 0.0504023
Maximum accepted flit rate = 0.069 (at node 202)
Total number of injected packets = 12904
Total number of injected flits = 12904
Average injected packet length = 1
Total number of accepted packets = 12903
Total number of accepted flits = 12903
Average accepted packet length = 1
Total in-flight flits = 1180 (0 measured)
===== Time: 4000 =====
Class 0:
Minimum packet latency = 7
Average packet latency = 86.8247
Maximum packet latency = 246
Minimum network latency = 8
Average network latency = 87.8247
Maximum network latency = 247
Slowest packet = 40376
Minimum flit latency = 8
Average flit latency = 89.6633
Maximum flit latency = 247
Slowest flit = 40376
Minimum fragmentation = 0
Average fragmentation = 0
Maximum fragmentation = 0
Minimum injected packet rate = 0.029 (at node 92)
Average injected packet rate = 0.0499531
Maximum injected packet rate = 0.073 (at node 165)
Minimum accepted packet rate = 0.031 (at node 220)
Average accepted packet rate = 0.0498594
Maximum accepted packet rate = 0.071 (at node 23)
Minimum injected flit rate = 0.029 (at node 92)
Average injected flit rate = 0.0499531
Maximum injected flit rate = 0.073 (at node 165)
Minimum accepted flit rate = 0.031 (at node 220)
Average accepted flit rate = 0.0498594
Maximum accepted flit rate = 0.071 (at node 23)
Total number of injected packets = 12788
Total number of injected flits = 12788
Average injected packet length = 1
Total number of accepted packets = 12764
Total number of accepted flits = 12764
Average accepted packet length = 1
Total in-flight flits = 1204 (1204 measured)
===== Time: 5000 =====
Class 0:
Minimum packet latency = 7
Average packet latency = 87.6717
Maximum packet latency = 269
Minimum network latency = 8
Average network latency = 88.6717
Maximum network latency = 270
Slowest packet = 59540
Minimum flit latency = 8
Average flit latency = 89.5496
Maximum flit latency = 270
Slowest flit = 59540
Minimum fragmentation = 0
Average fragmentation = 0
Maximum fragmentation = 0
Minimum injected packet rate = 0.0345 (at node 195)
Average injected packet rate = 0.049959
Maximum injected packet rate = 0.0635 (at node 165)
Minimum accepted packet rate = 0.032 (at node 110)
Average accepted packet rate = 0.0499902
Maximum accepted packet rate = 0.0655 (at node 213)
Minimum injected flit rate = 0.0345 (at node 195)
Average injected flit rate = 0.049959
Maximum injected flit rate = 0.0635 (at node 165)
Minimum accepted flit rate = 0.032 (at node 110)
Average accepted flit rate = 0.0499902
Maximum accepted flit rate = 0.0655 (at node 213)
Total number of injected packets = 25579
Total number of injected flits = 25579
Average injected packet length = 1
Total number of accepted packets = 25595
Total number of accepted flits = 25595
Average accepted packet length = 1
Total in-flight flits = 1164 (1164 measured)
===== Time: 6000 =====
Class 0:
Minimum packet latency = 7
Average packet latency = 88.2015
Maximum packet latency = 303
Minimum network latency = 8
Average network latency = 89.2015
Maximum network latency = 304
Slowest packet = 71389
Minimum flit latency = 8
Average flit latency = 89.7678
Maximum flit latency = 304
Slowest flit = 71389
Minimum fragmentation = 0
Average fragmentation = 0
Maximum fragmentation = 0
Minimum injected packet rate = 0.0386667 (at node 92)
Average injected packet rate = 0.0501523
Maximum injected packet rate = 0.0596667 (at node 102)
Minimum accepted packet rate = 0.0373333 (at node 188)
Average accepted packet rate = 0.0502279
Maximum accepted packet rate = 0.0616667 (at node 53)
Minimum injected flit rate = 0.0386667 (at node 92)
Average injected flit rate = 0.0501523
Maximum injected flit rate = 0.0596667 (at node 102)
Minimum accepted flit rate = 0.0373333 (at node 188)
Average accepted flit rate = 0.0502279
Maximum accepted flit rate = 0.0616667 (at node 53)
Total number of injected packets = 38517
Total number of injected flits = 38517
Average injected packet length = 1
Total number of accepted packets = 38575
Total number of accepted flits = 38575
Average accepted packet length = 1
Total in-flight flits = 1122 (1122 measured)
Draining remaining packets ...
Class 0:
Remaining flits: 74181 74293 74360 74717 74794 74829 74832 74834 74845 74846 [...] (997 flits)
Measured flits: 74181 74293 74360 74717 74794 74829 74832 74834 74845 74846 [...] (997 flits)
Class 0:
Remaining flits: 74293 74360 74717 74794 74832 74834 74845 74846 74886 74911 [...] (879 flits)
Measured flits: 74293 74360 74717 74794 74832 74834 74845 74846 74886 74911 [...] (879 flits)
Class 0:
Remaining flits: 74293 74832 74834 74845 74911 75036 75038 75098 75100 75136 [...] (749 flits)
Measured flits: 74293 74832 74834 74845 74911 75036 75038 75098 75100 75136 [...] (749 flits)
Class 0:
Remaining flits: 74293 74911 75036 75038 75098 75136 75267 75285 75323 75385 [...] (622 flits)
Measured flits: 74293 74911 75036 75038 75098 75136 75267 75285 75323 75385 [...] (622 flits)
Class 0:
Remaining flits: 75036 75136 75267 75457 75459 75482 75516 75556 75568 75578 [...] (509 flits)
Measured flits: 75036 75136 75267 75457 75459 75482 75516 75556 75568 75578 [...] (509 flits)
Class 0:
Remaining flits: 75136 75457 75482 75556 75568 75578 75605 75641 75647 75650 [...] (400 flits)
Measured flits: 75136 75457 75482 75556 75568 75578 75605 75641 75647 75650 [...] (400 flits)
Class 0:
Remaining flits: 75457 75556 75711 75718 75748 75753 75806 75894 75901 75904 [...] (315 flits)
Measured flits: 75457 75556 75711 75718 75748 75753 75806 75894 75901 75904 [...] (315 flits)
Class 0:
Remaining flits: 75711 75748 75753 75806 75894 75901 75904 75951 75974 75988 [...] (255 flits)
Measured flits: 75711 75748 75753 75806 75894 75901 75904 75951 75974 75988 [...] (255 flits)
Class 0:
Remaining flits: 75748 75806 75894 75904 75974 75988 76032 76044 76060 76086 [...] (188 flits)
Measured flits: 75748 75806 75894 75904 75974 75988 76032 76044 76060 76086 [...] (188 flits)
Class 0:
Remaining flits: 75806 75904 75974 75988 76032 76044 76171 76286 76298 76313 [...] (128 flits)
Measured flits: 75806 75904 75974 75988 76032 76044 76171 76286 76298 76313 [...] (128 flits)
Class 0:
Remaining flits: 76032 76323 76349 76351 76366 76384 76407 76423 76436 76485 [...] (85 flits)
Measured flits: 76032 76323 76349 76351 76366 76384 76407 76423 76436 76485 [...] (85 flits)
Class 0:
Remaining flits: 76323 76349 76351 76366 76384 76423 76436 76488 76502 76505 [...] (68 flits)
Measured flits: 76323 76349 76351 76366 76384 76423 76436 76488 76502 76505 [...] (68 flits)
Class 0:
Remaining flits: 76323 76349 76351 76366 76384 76423 76488 76538 76562 76564 [...] (55 flits)
Measured flits: 76323 76349 76351 76366 76384 76423 76488 76538 76562 76564 [...] (55 flits)
Class 0:
Remaining flits: 76366 76384 76423 76538 76562 76573 76574 76616 76625 76659 [...] (35 flits)
Measured flits: 76366 76384 76423 76538 76562 76573 76574 76616 76625 76659 [...] (35 flits)
Class 0:
Remaining flits: 76366 76384 76423 76538 76562 76625 76659 76701 76795 76873 [...] (23 flits)
Measured flits: 76366 76384 76423 76538 76562 76625 76659 76701 76795 76873 [...] (23 flits)
Class 0:
Remaining flits: 76562 76625 76701 76795 76873 76904 76939 76949 76969 76973 [...] (11 flits)
Measured flits: 76562 76625 76701 76795 76873 76904 76939 76949 76969 76973 [...] (11 flits)
Class 0:
Remaining flits: 76562 76795 76873 76939 76949 76973 76983 (7 flits)
Measured flits: 76562 76795 76873 76939 76949 76973 76983 (7 flits)
Class 0:
Remaining flits: 76562 76795 76873 76939 76949 76973 76983 (7 flits)
Measured flits: 76562 76795 76873 76939 76949 76973 76983 (7 flits)
Class 0:
Remaining flits: 76562 76795 76939 76949 76983 (5 flits)
Measured flits: 76562 76795 76939 76949 76983 (5 flits)
Class 0:
Remaining flits: 76562 76795 76939 (3 flits)
Measured flits: 76562 76795 76939 (3 flits)
Class 0:
Remaining flits: 76562 76795 76939 (3 flits)
Measured flits: 76562 76795 76939 (3 flits)
Class 0:
Remaining flits: 76562 76795 76939 (3 flits)
Measured flits: 76562 76795 76939 (3 flits)
Class 0:
Remaining flits: 76562 76795 76939 (3 flits)
Measured flits: 76562 76795 76939 (3 flits)
Class 0:
Remaining flits: 76562 76795 76939 (3 flits)
Measured flits: 76562 76795 76939 (3 flits)
Class 0:
Remaining flits: 76562 76795 76939 (3 flits)
Measured flits: 76562 76795 76939 (3 flits)
Class 0:
Remaining flits: 76562 76795 76939 (3 flits)
Measured flits: 76562 76795 76939 (3 flits)
Class 0:
Remaining flits: 76562 76795 76939 (3 flits)
Measured flits: 76562 76795 76939 (3 flits)
Class 0:
Remaining flits: 76562 76795 76939 (3 flits)
Measured flits: 76562 76795 76939 (3 flits)
Class 0:
Remaining flits: 76562 76795 76939 (3 flits)
Measured flits: 76562 76795 76939 (3 flits)
Class 0:
Remaining flits: 76562 76795 76939 (3 flits)
Measured flits: 76562 76795 76939 (3 flits)
Class 0:
Remaining flits: 76562 76795 76939 (3 flits)
Measured flits: 76562 76795 76939 (3 flits)
Class 0:
Remaining flits: 76562 76795 76939 (3 flits)
Measured flits: 76562 76795 76939 (3 flits)
Class 0:
Remaining flits: 76562 76795 76939 (3 flits)
Measured flits: 76562 76795 76939 (3 flits)
Class 0:
Remaining flits: 76562 76795 76939 (3 flits)
Measured flits: 76562 76795 76939 (3 flits)
Class 0:
Remaining flits: 76562 76795 76939 (3 flits)
Measured flits: 76562 76795 76939 (3 flits)
Class 0:
Remaining flits: 76562 76795 76939 (3 flits)
Measured flits: 76562 76795 76939 (3 flits)
Class 0:
Remaining flits: 76562 76795 76939 (3 flits)
Measured flits: 76562 76795 76939 (3 flits)
Class 0:
Remaining flits: 76562 76795 76939 (3 flits)
Measured flits: 76562 76795 76939 (3 flits)
Class 0:
Remaining flits: 76562 76795 76939 (3 flits)
Measured flits: 76562 76795 76939 (3 flits)
Class 0:
Remaining flits: 76562 76795 76939 (3 flits)
Measured flits: 76562 76795 76939 (3 flits)
Class 0:
Remaining flits: 76562 76795 76939 (3 flits)
Measured flits: 76562 76795 76939 (3 flits)
Class 0:
Remaining flits: 76562 76795 76939 (3 flits)
Measured flits: 76562 76795 76939 (3 flits)
Class 0:
Remaining flits: 76562 76795 76939 (3 flits)
Measured flits: 76562 76795 76939 (3 flits)
Class 0:
Remaining flits: 76562 76795 76939 (3 flits)
Measured flits: 76562 76795 76939 (3 flits)
Class 0:
Remaining flits: 76562 76795 76939 (3 flits)
Measured flits: 76562 76795 76939 (3 flits)
Class 0:
Remaining flits: 76562 76795 76939 (3 flits)
Measured flits: 76562 76795 76939 (3 flits)
Class 0:
Remaining flits: 76562 76795 76939 (3 flits)
Measured flits: 76562 76795 76939 (3 flits)
Class 0:
Remaining flits: 76562 76795 76939 (3 flits)
Measured flits: 76562 76795 76939 (3 flits)
Class 0:
Remaining flits: 76562 76795 76939 (3 flits)
Measured flits: 76562 76795 76939 (3 flits)
Class 0:
Remaining flits: 76562 76795 76939 (3 flits)
Measured flits: 76562 76795 76939 (3 flits)
Class 0:
Remaining flits: 76562 76795 76939 (3 flits)
Measured flits: 76562 76795 76939 (3 flits)
Class 0:
Remaining flits: 76562 76795 76939 (3 flits)
Measured flits: 76562 76795 76939 (3 flits)
Class 0:
Remaining flits: 76562 76795 76939 (3 flits)
Measured flits: 76562 76795 76939 (3 flits)
Class 0:
Remaining flits: 76562 76795 76939 (3 flits)
Measured flits: 76562 76795 76939 (3 flits)
Class 0:
Remaining flits: 76562 76795 76939 (3 flits)
Measured flits: 76562 76795 76939 (3 flits)
Class 0:
Remaining flits: 76562 76795 76939 (3 flits)
Measured flits: 76562 76795 76939 (3 flits)
Class 0:
Remaining flits: 76562 76795 76939 (3 flits)
Measured flits: 76562 76795 76939 (3 flits)
Class 0:
Remaining flits: 76562 76795 76939 (3 flits)
Measured flits: 76562 76795 76939 (3 flits)
Class 0:
Remaining flits: 76562 76795 76939 (3 flits)
Measured flits: 76562 76795 76939 (3 flits)
Class 0:
Remaining flits: 76562 76795 76939 (3 flits)
Measured flits: 76562 76795 76939 (3 flits)
Class 0:
Remaining flits: 76562 76795 76939 (3 flits)
Measured flits: 76562 76795 76939 (3 flits)
Class 0:
Remaining flits: 76562 76795 76939 (3 flits)
Measured flits: 76562 76795 76939 (3 flits)
Class 0:
Remaining flits: 76562 76795 76939 (3 flits)
Measured flits: 76562 76795 76939 (3 flits)
Class 0:
Remaining flits: 76562 76795 76939 (3 flits)
Measured flits: 76562 76795 76939 (3 flits)
Class 0:
Remaining flits: 76562 76795 76939 (3 flits)
Measured flits: 76562 76795 76939 (3 flits)
Class 0:
Remaining flits: 76562 76795 76939 (3 flits)
Measured flits: 76562 76795 76939 (3 flits)
Class 0:
Remaining flits: 76562 76795 76939 (3 flits)
Measured flits: 76562 76795 76939 (3 flits)
Class 0:
Remaining flits: 76562 76795 76939 (3 flits)
Measured flits: 76562 76795 76939 (3 flits)
Class 0:
Remaining flits: 76562 76795 76939 (3 flits)
Measured flits: 76562 76795 76939 (3 flits)
Class 0:
Remaining flits: 76562 76795 76939 (3 flits)
Measured flits: 76562 76795 76939 (3 flits)
Class 0:
Remaining flits: 76562 76795 76939 (3 flits)
Measured flits: 76562 76795 76939 (3 flits)
Class 0:
Remaining flits: 76562 76795 76939 (3 flits)
Measured flits: 76562 76795 76939 (3 flits)
Class 0:
Remaining flits: 76562 76795 76939 (3 flits)
Measured flits: 76562 76795 76939 (3 flits)
Class 0:
Remaining flits: 76562 76795 76939 (3 flits)
Measured flits: 76562 76795 76939 (3 flits)
Class 0:
Remaining flits: 76562 76795 76939 (3 flits)
Measured flits: 76562 76795 76939 (3 flits)
Class 0:
Remaining flits: 76562 76795 76939 (3 flits)
Measured flits: 76562 76795 76939 (3 flits)
Class 0:
Remaining flits: 76562 76795 76939 (3 flits)
Measured flits: 76562 76795 76939 (3 flits)
Class 0:
Remaining flits: 76562 76795 76939 (3 flits)
Measured flits: 76562 76795 76939 (3 flits)
Class 0:
Remaining flits: 76562 76795 76939 (3 flits)
Measured flits: 76562 76795 76939 (3 flits)
Class 0:
Remaining flits: 76562 76795 76939 (3 flits)
Measured flits: 76562 76795 76939 (3 flits)
Class 0:
Remaining flits: 76562 76795 76939 (3 flits)
Measured flits: 76562 76795 76939 (3 flits)
Class 0:
Remaining flits: 76562 76795 76939 (3 flits)
Measured flits: 76562 76795 76939 (3 flits)
Class 0:
Remaining flits: 76562 76795 76939 (3 flits)
Measured flits: 76562 76795 76939 (3 flits)
Class 0:
Remaining flits: 76562 76795 76939 (3 flits)
Measured flits: 76562 76795 76939 (3 flits)
Class 0:
Remaining flits: 76562 76795 76939 (3 flits)
Measured flits: 76562 76795 76939 (3 flits)
Class 0:
Remaining flits: 76562 76795 76939 (3 flits)
Measured flits: 76562 76795 76939 (3 flits)
Class 0:
Remaining flits: 76562 76795 76939 (3 flits)
Measured flits: 76562 76795 76939 (3 flits)
Class 0:
Remaining flits: 76562 76795 76939 (3 flits)
Measured flits: 76562 76795 76939 (3 flits)
Class 0:
Remaining flits: 76562 76795 76939 (3 flits)
Measured flits: 76562 76795 76939 (3 flits)
Class 0:
Remaining flits: 76562 76795 76939 (3 flits)
Measured flits: 76562 76795 76939 (3 flits)
Class 0:
Remaining flits: 76562 76795 76939 (3 flits)
Measured flits: 76562 76795 76939 (3 flits)
Class 0:
Remaining flits: 76562 76795 76939 (3 flits)
Measured flits: 76562 76795 76939 (3 flits)
Class 0:
Remaining flits: 76562 76795 76939 (3 flits)
Measured flits: 76562 76795 76939 (3 flits)
Class 0:
Remaining flits: 76562 76795 76939 (3 flits)
Measured flits: 76562 76795 76939 (3 flits)
Class 0:
Remaining flits: 76562 76795 76939 (3 flits)
Measured flits: 76562 76795 76939 (3 flits)
Class 0:
Remaining flits: 76562 76795 76939 (3 flits)
Measured flits: 76562 76795 76939 (3 flits)
Class 0:
Remaining flits: 76562 76795 76939 (3 flits)
Measured flits: 76562 76795 76939 (3 flits)
Class 0:
Remaining flits: 76562 76795 76939 (3 flits)
Measured flits: 76562 76795 76939 (3 flits)
Class 0:
Remaining flits: 76562 76795 76939 (3 flits)
Measured flits: 76562 76795 76939 (3 flits)
Class 0:
Remaining flits: 76562 76795 76939 (3 flits)
Measured flits: 76562 76795 76939 (3 flits)
Class 0:
Remaining flits: 76562 76795 76939 (3 flits)
Measured flits: 76562 76795 76939 (3 flits)
Time taken is 7000 cycles
====== Traffic class 0 ======

Total number of flits generated = 76998, changed lanes = 76542
Overall minimum packet latency = 7 (1 samples)
Overall average packet latency = 88.7408 (1 samples)
Overall maximum packet latency = 303 (1 samples)
Overall minimum network latency = 8 (1 samples)
Overall average network latency = 89.7408 (1 samples)
Overall maximum network latency = 304 (1 samples)
Overall minimum flit latency = 8 (1 samples)
Overall average flit latency = 90.275 (1 samples)
Overall maximum flit latency = 304 (1 samples)
Overall minimum fragmentation = 0 (1 samples)
Overall average fragmentation = 0 (1 samples)
Overall maximum fragmentation = 0 (1 samples)
Overall minimum injected packet rate = 0.0386667 (1 samples)
Overall average injected packet rate = 0.0501523 (1 samples)
Overall maximum injected packet rate = 0.0596667 (1 samples)
Overall minimum accepted packet rate = 0.0373333 (1 samples)
Overall average accepted packet rate = 0.0502279 (1 samples)
Overall maximum accepted packet rate = 0.0616667 (1 samples)
Overall minimum injected flit rate = 0.0386667 (1 samples)
Overall average injected flit rate = 0.0501523 (1 samples)
Overall maximum injected flit rate = 0.0596667 (1 samples)
Overall minimum accepted flit rate = 0.0373333 (1 samples)
Overall average accepted flit rate = 0.0502279 (1 samples)
Overall maximum accepted flit rate = 0.0616667 (1 samples)
Overall average injected packet size = 1 (1 samples)
Overall average accepted packet size = 1 (1 samples)
Overall average hops = 11.5978 (1 samples)
Overall throughput of the network (flits/cycle) = 25.665
Overall throughput of the network (packets/cycle) = 25.665
Total run time 480.312
