make: Nothing to be done for 'all'.
Master: Running timer....
Master: Running SRC....
BEGIN Configuration File: ./examples/bitrev
// Topology

topology = mesh;
k = 2;
n = 2;

// Routing
routing_function = dor;

// Flow control
num_vcs     = 4;
vc_buf_size = 4;
wait_for_tail_credit = 0;

// Router architecture
vc_allocator = islip;
sw_allocator = islip;
alloc_iters  = 1;

credit_delay   = 1;
routing_delay  = 1;
vc_alloc_delay = 1;
sw_alloc_delay = 1;

input_speedup     = 1;
output_speedup    = 1;
internal_speedup  = 1.0;

vc_busy_when_full = 0;

// Traffic
traffic = uniform;
packet_size = 1;

// Simulation
sim_type = throughput;

injection_rate = 0.05;

END Configuration File: ./examples/bitrev
===== Time: 1000 =====
Class 0:
Minimum packet latency = 7
Average packet latency = 14.3846
Maximum packet latency = 24
Minimum network latency = 8
Average network latency = 15.3846
Maximum network latency = 25
Slowest packet = 96
Minimum flit latency = 8
Average flit latency = 15.3846
Maximum flit latency = 25
Slowest flit = 19
Minimum fragmentation = 0
Average fragmentation = 0
Maximum fragmentation = 0
Minimum injected packet rate = 0.038 (at node 2)
Average injected packet rate = 0.04325
Maximum injected packet rate = 0.048 (at node 1)
Minimum accepted packet rate = 0.032 (at node 1)
Average accepted packet rate = 0.04225
Maximum accepted packet rate = 0.051 (at node 3)
Minimum injected flit rate = 0.038 (at node 2)
Average injected flit rate = 0.04325
Maximum injected flit rate = 0.048 (at node 1)
Minimum accepted flit rate = 0.032 (at node 1)
Average accepted flit rate = 0.04225
Maximum accepted flit rate = 0.051 (at node 3)
Total number of injected packets = 173
Total number of injected flits = 173
Average injected packet length = 1
Total number of accepted packets = 169
Total number of accepted flits = 169
Average accepted packet length = 1
Total in-flight flits = 4 (0 measured)
===== Time: 2000 =====
Class 0:
Minimum packet latency = 7
Average packet latency = 14.4937
Maximum packet latency = 26
Minimum network latency = 8
Average network latency = 15.4937
Maximum network latency = 27
Slowest packet = 336
Minimum flit latency = 8
Average flit latency = 15.4937
Maximum flit latency = 27
Slowest flit = 336
Minimum fragmentation = 0
Average fragmentation = 0
Maximum fragmentation = 0
Minimum injected packet rate = 0.044 (at node 0)
Average injected packet rate = 0.049625
Maximum injected packet rate = 0.0555 (at node 1)
Minimum accepted packet rate = 0.0475 (at node 0)
Average accepted packet rate = 0.049375
Maximum accepted packet rate = 0.0505 (at node 2)
Minimum injected flit rate = 0.044 (at node 0)
Average injected flit rate = 0.049625
Maximum injected flit rate = 0.0555 (at node 1)
Minimum accepted flit rate = 0.0475 (at node 0)
Average accepted flit rate = 0.049375
Maximum accepted flit rate = 0.0505 (at node 2)
Total number of injected packets = 397
Total number of injected flits = 397
Average injected packet length = 1
Total number of accepted packets = 395
Total number of accepted flits = 395
Average accepted packet length = 1
Total in-flight flits = 2 (0 measured)
===== Time: 3000 =====
Class 0:
Minimum packet latency = 7
Average packet latency = 15.4719
Maximum packet latency = 82
Minimum network latency = 8
Average network latency = 16.4719
Maximum network latency = 83
Slowest packet = 445
Minimum flit latency = 8
Average flit latency = 16.4719
Maximum flit latency = 83
Slowest flit = 445
Minimum fragmentation = 0
Average fragmentation = 0
Maximum fragmentation = 0
Minimum injected packet rate = 0.04 (at node 2)
Average injected packet rate = 0.045
Maximum injected packet rate = 0.049 (at node 0)
Minimum accepted packet rate = 0.042 (at node 1)
Average accepted packet rate = 0.0445
Maximum accepted packet rate = 0.048 (at node 0)
Minimum injected flit rate = 0.04 (at node 2)
Average injected flit rate = 0.045
Maximum injected flit rate = 0.049 (at node 0)
Minimum accepted flit rate = 0.042 (at node 1)
Average accepted flit rate = 0.0445
Maximum accepted flit rate = 0.048 (at node 0)
Total number of injected packets = 180
Total number of injected flits = 180
Average injected packet length = 1
Total number of accepted packets = 178
Total number of accepted flits = 178
Average accepted packet length = 1
Total in-flight flits = 4 (0 measured)
===== Time: 4000 =====
Class 0:
Minimum packet latency = 7
Average packet latency = 15.0197
Maximum packet latency = 27
Minimum network latency = 8
Average network latency = 16.0197
Maximum network latency = 28
Slowest packet = 663
Minimum flit latency = 8
Average flit latency = 16.43
Maximum flit latency = 60
Slowest flit = 571
Minimum fragmentation = 0
Average fragmentation = 0
Maximum fragmentation = 0
Minimum injected packet rate = 0.038 (at node 1)
Average injected packet rate = 0.05125
Maximum injected packet rate = 0.057 (at node 3)
Minimum accepted packet rate = 0.045 (at node 2)
Average accepted packet rate = 0.05175
Maximum accepted packet rate = 0.056 (at node 0)
Minimum injected flit rate = 0.038 (at node 1)
Average injected flit rate = 0.05125
Maximum injected flit rate = 0.057 (at node 3)
Minimum accepted flit rate = 0.045 (at node 2)
Average accepted flit rate = 0.05175
Maximum accepted flit rate = 0.056 (at node 0)
Total number of injected packets = 205
Total number of injected flits = 205
Average injected packet length = 1
Total number of accepted packets = 207
Total number of accepted flits = 207
Average accepted packet length = 1
Total in-flight flits = 2 (2 measured)
===== Time: 5000 =====
Class 0:
Minimum packet latency = 7
Average packet latency = 15.0474
Maximum packet latency = 30
Minimum network latency = 8
Average network latency = 16.0474
Maximum network latency = 31
Slowest packet = 872
Minimum flit latency = 8
Average flit latency = 16.2682
Maximum flit latency = 60
Slowest flit = 571
Minimum fragmentation = 0
Average fragmentation = 0
Maximum fragmentation = 0
Minimum injected packet rate = 0.0375 (at node 1)
Average injected packet rate = 0.047875
Maximum injected packet rate = 0.0535 (at node 2)
Minimum accepted packet rate = 0.042 (at node 2)
Average accepted packet rate = 0.048
Maximum accepted packet rate = 0.0515 (at node 1)
Minimum injected flit rate = 0.0375 (at node 1)
Average injected flit rate = 0.047875
Maximum injected flit rate = 0.0535 (at node 2)
Minimum accepted flit rate = 0.042 (at node 2)
Average accepted flit rate = 0.048
Maximum accepted flit rate = 0.0515 (at node 1)
Total number of injected packets = 383
Total number of injected flits = 383
Average injected packet length = 1
Total number of accepted packets = 384
Total number of accepted flits = 384
Average accepted packet length = 1
Total in-flight flits = 3 (3 measured)
===== Time: 6000 =====
Class 0:
Minimum packet latency = 7
Average packet latency = 14.6561
Maximum packet latency = 30
Minimum network latency = 8
Average network latency = 15.6561
Maximum network latency = 31
Slowest packet = 872
Minimum flit latency = 8
Average flit latency = 15.7987
Maximum flit latency = 60
Slowest flit = 571
Minimum fragmentation = 0
Average fragmentation = 0
Maximum fragmentation = 0
Minimum injected packet rate = 0.045 (at node 1)
Average injected packet rate = 0.0505833
Maximum injected packet rate = 0.0543333 (at node 0)
Minimum accepted packet rate = 0.0433333 (at node 2)
Average accepted packet rate = 0.0505
Maximum accepted packet rate = 0.056 (at node 1)
Minimum injected flit rate = 0.045 (at node 1)
Average injected flit rate = 0.0505833
Maximum injected flit rate = 0.0543333 (at node 0)
Minimum accepted flit rate = 0.0433333 (at node 2)
Average accepted flit rate = 0.0505
Maximum accepted flit rate = 0.056 (at node 1)
Total number of injected packets = 607
Total number of injected flits = 607
Average injected packet length = 1
Total number of accepted packets = 606
Total number of accepted flits = 606
Average accepted packet length = 1
Total in-flight flits = 5 (5 measured)
===== Time: 7000 =====
Class 0:
Minimum packet latency = 6
Average packet latency = 14.8232
Maximum packet latency = 43
Minimum network latency = 7
Average network latency = 15.8232
Maximum network latency = 44
Slowest packet = 1317
Minimum flit latency = 7
Average flit latency = 15.9294
Maximum flit latency = 60
Slowest flit = 571
Minimum fragmentation = 0
Average fragmentation = 0
Maximum fragmentation = 0
Minimum injected packet rate = 0.04275 (at node 1)
Average injected packet rate = 0.05025
Maximum injected packet rate = 0.0555 (at node 0)
Minimum accepted packet rate = 0.04675 (at node 2)
Average accepted packet rate = 0.0504375
Maximum accepted packet rate = 0.05325 (at node 1)
Minimum injected flit rate = 0.04275 (at node 1)
Average injected flit rate = 0.05025
Maximum injected flit rate = 0.0555 (at node 0)
Minimum accepted flit rate = 0.04675 (at node 2)
Average accepted flit rate = 0.0504375
Maximum accepted flit rate = 0.05325 (at node 1)
Total number of injected packets = 804
Total number of injected flits = 804
Average injected packet length = 1
Total number of accepted packets = 807
Total number of accepted flits = 807
Average accepted packet length = 1
Total in-flight flits = 1 (1 measured)
===== Time: 8000 =====
Class 0:
Minimum packet latency = 6
Average packet latency = 14.7482
Maximum packet latency = 43
Minimum network latency = 7
Average network latency = 15.7482
Maximum network latency = 44
Slowest packet = 1317
Minimum flit latency = 7
Average flit latency = 15.8345
Maximum flit latency = 60
Slowest flit = 571
Minimum fragmentation = 0
Average fragmentation = 0
Maximum fragmentation = 0
Minimum injected packet rate = 0.0462 (at node 1)
Average injected packet rate = 0.04975
Maximum injected packet rate = 0.0522 (at node 0)
Minimum accepted packet rate = 0.0478 (at node 2)
Average accepted packet rate = 0.04985
Maximum accepted packet rate = 0.0522 (at node 1)
Minimum injected flit rate = 0.0462 (at node 1)
Average injected flit rate = 0.04975
Maximum injected flit rate = 0.0522 (at node 0)
Minimum accepted flit rate = 0.0478 (at node 2)
Average accepted flit rate = 0.04985
Maximum accepted flit rate = 0.0522 (at node 1)
Total number of injected packets = 995
Total number of injected flits = 995
Average injected packet length = 1
Total number of accepted packets = 997
Total number of accepted flits = 997
Average accepted packet length = 1
Total in-flight flits = 2 (2 measured)
Draining remaining packets ...
Class 0:
Remaining flits: 1570 1571 (2 flits)
Measured flits: 1570 1571 (2 flits)
Class 0:
Remaining flits: (0 flits)
Measured flits: (0 flits)
Class 0:
Remaining flits: (0 flits)
Measured flits: (0 flits)
Class 0:
Remaining flits: (0 flits)
Measured flits: (0 flits)
Class 0:
Remaining flits: (0 flits)
Measured flits: (0 flits)
Class 0:
Remaining flits: (0 flits)
Measured flits: (0 flits)
Class 0:
Remaining flits: (0 flits)
Measured flits: (0 flits)
Class 0:
Remaining flits: (0 flits)
Measured flits: (0 flits)
Class 0:
Remaining flits: (0 flits)
Measured flits: (0 flits)
Class 0:
Remaining flits: (0 flits)
Measured flits: (0 flits)
Class 0:
Remaining flits: (0 flits)
Measured flits: (0 flits)
Class 0:
Remaining flits: (0 flits)
Measured flits: (0 flits)
Class 0:
Remaining flits: (0 flits)
Measured flits: (0 flits)
Class 0:
Remaining flits: (0 flits)
Measured flits: (0 flits)
Class 0:
Remaining flits: (0 flits)
Measured flits: (0 flits)
Class 0:
Remaining flits: (0 flits)
Measured flits: (0 flits)
Class 0:
Remaining flits: (0 flits)
Measured flits: (0 flits)
Class 0:
Remaining flits: (0 flits)
Measured flits: (0 flits)
Class 0:
Remaining flits: (0 flits)
Measured flits: (0 flits)
Class 0:
Remaining flits: (0 flits)
Measured flits: (0 flits)
Class 0:
Remaining flits: (0 flits)
Measured flits: (0 flits)
Class 0:
Remaining flits: (0 flits)
Measured flits: (0 flits)
Class 0:
Remaining flits: (0 flits)
Measured flits: (0 flits)
Class 0:
Remaining flits: (0 flits)
Measured flits: (0 flits)
Class 0:
Remaining flits: (0 flits)
Measured flits: (0 flits)
Class 0:
Remaining flits: (0 flits)
Measured flits: (0 flits)
Class 0:
Remaining flits: (0 flits)
Measured flits: (0 flits)
Class 0:
Remaining flits: (0 flits)
Measured flits: (0 flits)
Class 0:
Remaining flits: (0 flits)
Measured flits: (0 flits)
Class 0:
Remaining flits: (0 flits)
Measured flits: (0 flits)
Class 0:
Remaining flits: (0 flits)
Measured flits: (0 flits)
Class 0:
Remaining flits: (0 flits)
Measured flits: (0 flits)
Class 0:
Remaining flits: (0 flits)
Measured flits: (0 flits)
Class 0:
Remaining flits: (0 flits)
Measured flits: (0 flits)
Class 0:
Remaining flits: (0 flits)
Measured flits: (0 flits)
Class 0:
Remaining flits: (0 flits)
Measured flits: (0 flits)
Class 0:
Remaining flits: (0 flits)
Measured flits: (0 flits)
Class 0:
Remaining flits: (0 flits)
Measured flits: (0 flits)
Class 0:
Remaining flits: (0 flits)
Measured flits: (0 flits)
Class 0:
Remaining flits: (0 flits)
Measured flits: (0 flits)
Class 0:
Remaining flits: (0 flits)
Measured flits: (0 flits)
Class 0:
Remaining flits: (0 flits)
Measured flits: (0 flits)
Class 0:
Remaining flits: (0 flits)
Measured flits: (0 flits)
Class 0:
Remaining flits: (0 flits)
Measured flits: (0 flits)
Class 0:
Remaining flits: (0 flits)
Measured flits: (0 flits)
Class 0:
Remaining flits: (0 flits)
Measured flits: (0 flits)
Class 0:
Remaining flits: (0 flits)
Measured flits: (0 flits)
Class 0:
Remaining flits: (0 flits)
Measured flits: (0 flits)
Class 0:
Remaining flits: (0 flits)
Measured flits: (0 flits)
Class 0:
Remaining flits: (0 flits)
Measured flits: (0 flits)
Class 0:
Remaining flits: (0 flits)
Measured flits: (0 flits)
Class 0:
Remaining flits: (0 flits)
Measured flits: (0 flits)
Class 0:
Remaining flits: (0 flits)
Measured flits: (0 flits)
Class 0:
Remaining flits: (0 flits)
Measured flits: (0 flits)
Class 0:
Remaining flits: (0 flits)
Measured flits: (0 flits)
Class 0:
Remaining flits: (0 flits)
Measured flits: (0 flits)
Class 0:
Remaining flits: (0 flits)
Measured flits: (0 flits)
Class 0:
Remaining flits: (0 flits)
Measured flits: (0 flits)
Class 0:
Remaining flits: (0 flits)
Measured flits: (0 flits)
Class 0:
Remaining flits: (0 flits)
Measured flits: (0 flits)
Class 0:
Remaining flits: (0 flits)
Measured flits: (0 flits)
Class 0:
Remaining flits: (0 flits)
Measured flits: (0 flits)
Class 0:
Remaining flits: (0 flits)
Measured flits: (0 flits)
Class 0:
Remaining flits: (0 flits)
Measured flits: (0 flits)
Class 0:
Remaining flits: (0 flits)
Measured flits: (0 flits)
Class 0:
Remaining flits: (0 flits)
Measured flits: (0 flits)
Class 0:
Remaining flits: (0 flits)
Measured flits: (0 flits)
Class 0:
Remaining flits: (0 flits)
Measured flits: (0 flits)
Class 0:
Remaining flits: (0 flits)
Measured flits: (0 flits)
Class 0:
Remaining flits: (0 flits)
Measured flits: (0 flits)
Class 0:
Remaining flits: (0 flits)
Measured flits: (0 flits)
Class 0:
Remaining flits: (0 flits)
Measured flits: (0 flits)
Class 0:
Remaining flits: (0 flits)
Measured flits: (0 flits)
Class 0:
Remaining flits: (0 flits)
Measured flits: (0 flits)
Class 0:
Remaining flits: (0 flits)
Measured flits: (0 flits)
Class 0:
Remaining flits: (0 flits)
Measured flits: (0 flits)
Class 0:
Remaining flits: (0 flits)
Measured flits: (0 flits)
Class 0:
Remaining flits: (0 flits)
Measured flits: (0 flits)
Class 0:
Remaining flits: (0 flits)
Measured flits: (0 flits)
Class 0:
Remaining flits: (0 flits)
Measured flits: (0 flits)
Class 0:
Remaining flits: (0 flits)
Measured flits: (0 flits)
Class 0:
Remaining flits: (0 flits)
Measured flits: (0 flits)
Class 0:
Remaining flits: (0 flits)
Measured flits: (0 flits)
Class 0:
Remaining flits: (0 flits)
Measured flits: (0 flits)
Class 0:
Remaining flits: (0 flits)
Measured flits: (0 flits)
Class 0:
Remaining flits: (0 flits)
Measured flits: (0 flits)
Class 0:
Remaining flits: (0 flits)
Measured flits: (0 flits)
Class 0:
Remaining flits: (0 flits)
Measured flits: (0 flits)
Class 0:
Remaining flits: (0 flits)
Measured flits: (0 flits)
Class 0:
Remaining flits: (0 flits)
Measured flits: (0 flits)
Class 0:
Remaining flits: (0 flits)
Measured flits: (0 flits)
Class 0:
Remaining flits: (0 flits)
Measured flits: (0 flits)
Class 0:
Remaining flits: (0 flits)
Measured flits: (0 flits)
Class 0:
Remaining flits: (0 flits)
Measured flits: (0 flits)
Class 0:
Remaining flits: (0 flits)
Measured flits: (0 flits)
Class 0:
Remaining flits: (0 flits)
Measured flits: (0 flits)
Class 0:
Remaining flits: (0 flits)
Measured flits: (0 flits)
Class 0:
Remaining flits: (0 flits)
Measured flits: (0 flits)
Class 0:
Remaining flits: (0 flits)
Measured flits: (0 flits)
Class 0:
Remaining flits: (0 flits)
Measured flits: (0 flits)
Class 0:
Remaining flits: (0 flits)
Measured flits: (0 flits)
Time taken is 9000 cycles
====== Traffic class 0 ======

Total number of flits generated = 1572, changed lanes = 1393
Overall minimum packet latency = 6 (1 samples)
Overall average packet latency = 14.7648 (1 samples)
Overall maximum packet latency = 43 (1 samples)
Overall minimum network latency = 7 (1 samples)
Overall average network latency = 15.7648 (1 samples)
Overall maximum network latency = 44 (1 samples)
Overall minimum flit latency = 7 (1 samples)
Overall average flit latency = 15.8509 (1 samples)
Overall maximum flit latency = 60 (1 samples)
Overall minimum fragmentation = 0 (1 samples)
Overall average fragmentation = 0 (1 samples)
Overall maximum fragmentation = 0 (1 samples)
Overall minimum injected packet rate = 0.0462 (1 samples)
Overall average injected packet rate = 0.04975 (1 samples)
Overall maximum injected packet rate = 0.0522 (1 samples)
Overall minimum accepted packet rate = 0.0478 (1 samples)
Overall average accepted packet rate = 0.04985 (1 samples)
Overall maximum accepted packet rate = 0.0522 (1 samples)
Overall minimum injected flit rate = 0.0462 (1 samples)
Overall average injected flit rate = 0.04975 (1 samples)
Overall maximum injected flit rate = 0.0522 (1 samples)
Overall minimum accepted flit rate = 0.0478 (1 samples)
Overall average accepted flit rate = 0.04985 (1 samples)
Overall maximum accepted flit rate = 0.0522 (1 samples)
Overall average injected packet size = 1 (1 samples)
Overall average accepted packet size = 1 (1 samples)
Overall average hops = 1.96382 (1 samples)
Overall throughput of the network (flits/cycle) = 0.3144
Overall throughput of the network (packets/cycle) = 0.3144
Total run time 2.67359
