make: Nothing to be done for 'all'.
Master: Running timer....
Master: Running SRC....
BEGIN Configuration File: ./examples/bitrev
// Topology

topology = mesh;
k = 8;
n = 2;

// Routing
routing_function = dor;

// Flow control
num_vcs     = 4;
vc_buf_size = 4;
wait_for_tail_credit = 0;

// Router architecture
vc_allocator = islip;
sw_allocator = islip;
alloc_iters  = 1;

credit_delay   = 1;
routing_delay  = 1;
vc_alloc_delay = 1;
sw_alloc_delay = 1;

input_speedup     = 1;
output_speedup    = 1;
internal_speedup  = 1.0;

vc_busy_when_full = 0;

// Traffic
traffic = uniform;
packet_size = 1;

// Simulation
sim_type = throughput;

injection_rate = 0.05;

END Configuration File: ./examples/bitrev
===== Time: 1000 =====
Class 0:
Minimum packet latency = 8
Average packet latency = 78.3738
Maximum packet latency = 215
Minimum network latency = 9
Average network latency = 79.3738
Maximum network latency = 216
Slowest packet = 2223
Minimum flit latency = 9
Average flit latency = 79.3738
Maximum flit latency = 216
Slowest flit = 2223
Minimum fragmentation = 0
Average fragmentation = 0
Maximum fragmentation = 0
Minimum injected packet rate = 0.034 (at node 9)
Average injected packet rate = 0.0495312
Maximum injected packet rate = 0.064 (at node 41)
Minimum accepted packet rate = 0.031 (at node 23)
Average accepted packet rate = 0.0457656
Maximum accepted packet rate = 0.061 (at node 27)
Minimum injected flit rate = 0.034 (at node 9)
Average injected flit rate = 0.0495312
Maximum injected flit rate = 0.064 (at node 41)
Minimum accepted flit rate = 0.031 (at node 23)
Average accepted flit rate = 0.0457656
Maximum accepted flit rate = 0.061 (at node 27)
Total number of injected packets = 3170
Total number of injected flits = 3170
Average injected packet length = 1
Total number of accepted packets = 2929
Total number of accepted flits = 2929
Average accepted packet length = 1
Total in-flight flits = 241 (0 measured)
===== Time: 2000 =====
Class 0:
Minimum packet latency = 8
Average packet latency = 79.5131
Maximum packet latency = 219
Minimum network latency = 9
Average network latency = 80.5131
Maximum network latency = 220
Slowest packet = 5172
Minimum flit latency = 9
Average flit latency = 80.5131
Maximum flit latency = 220
Slowest flit = 5172
Minimum fragmentation = 0
Average fragmentation = 0
Maximum fragmentation = 0
Minimum injected packet rate = 0.04 (at node 9)
Average injected packet rate = 0.0495469
Maximum injected packet rate = 0.0595 (at node 37)
Minimum accepted packet rate = 0.036 (at node 52)
Average accepted packet rate = 0.0475312
Maximum accepted packet rate = 0.057 (at node 27)
Minimum injected flit rate = 0.04 (at node 9)
Average injected flit rate = 0.0495469
Maximum injected flit rate = 0.0595 (at node 37)
Minimum accepted flit rate = 0.036 (at node 52)
Average accepted flit rate = 0.0475312
Maximum accepted flit rate = 0.057 (at node 27)
Total number of injected packets = 6342
Total number of injected flits = 6342
Average injected packet length = 1
Total number of accepted packets = 6084
Total number of accepted flits = 6084
Average accepted packet length = 1
Total in-flight flits = 258 (0 measured)
===== Time: 3000 =====
Class 0:
Minimum packet latency = 8
Average packet latency = 81.4324
Maximum packet latency = 230
Minimum network latency = 9
Average network latency = 82.4324
Maximum network latency = 231
Slowest packet = 8488
Minimum flit latency = 9
Average flit latency = 82.4324
Maximum flit latency = 231
Slowest flit = 8488
Minimum fragmentation = 0
Average fragmentation = 0
Maximum fragmentation = 0
Minimum injected packet rate = 0.035 (at node 14)
Average injected packet rate = 0.05
Maximum injected packet rate = 0.07 (at node 47)
Minimum accepted packet rate = 0.035 (at node 30)
Average accepted packet rate = 0.0497187
Maximum accepted packet rate = 0.065 (at node 16)
Minimum injected flit rate = 0.035 (at node 14)
Average injected flit rate = 0.05
Maximum injected flit rate = 0.07 (at node 47)
Minimum accepted flit rate = 0.035 (at node 30)
Average accepted flit rate = 0.0497187
Maximum accepted flit rate = 0.065 (at node 16)
Total number of injected packets = 3200
Total number of injected flits = 3200
Average injected packet length = 1
Total number of accepted packets = 3182
Total number of accepted flits = 3182
Average accepted packet length = 1
Total in-flight flits = 276 (0 measured)
===== Time: 4000 =====
Class 0:
Minimum packet latency = 8
Average packet latency = 81.3966
Maximum packet latency = 238
Minimum network latency = 9
Average network latency = 82.3966
Maximum network latency = 239
Slowest packet = 10976
Minimum flit latency = 9
Average flit latency = 83.6822
Maximum flit latency = 239
Slowest flit = 10976
Minimum fragmentation = 0
Average fragmentation = 0
Maximum fragmentation = 0
Minimum injected packet rate = 0.035 (at node 52)
Average injected packet rate = 0.05125
Maximum injected packet rate = 0.066 (at node 34)
Minimum accepted packet rate = 0.037 (at node 45)
Average accepted packet rate = 0.0516719
Maximum accepted packet rate = 0.073 (at node 24)
Minimum injected flit rate = 0.035 (at node 52)
Average injected flit rate = 0.05125
Maximum injected flit rate = 0.066 (at node 34)
Minimum accepted flit rate = 0.037 (at node 45)
Average accepted flit rate = 0.0516719
Maximum accepted flit rate = 0.073 (at node 24)
Total number of injected packets = 3280
Total number of injected flits = 3280
Average injected packet length = 1
Total number of accepted packets = 3307
Total number of accepted flits = 3307
Average accepted packet length = 1
Total in-flight flits = 249 (249 measured)
===== Time: 5000 =====
Class 0:
Minimum packet latency = 8
Average packet latency = 81.3592
Maximum packet latency = 307
Minimum network latency = 9
Average network latency = 82.3592
Maximum network latency = 308
Slowest packet = 12010
Minimum flit latency = 9
Average flit latency = 83.017
Maximum flit latency = 308
Slowest flit = 12010
Minimum fragmentation = 0
Average fragmentation = 0
Maximum fragmentation = 0
Minimum injected packet rate = 0.038 (at node 52)
Average injected packet rate = 0.0505469
Maximum injected packet rate = 0.0635 (at node 43)
Minimum accepted packet rate = 0.037 (at node 21)
Average accepted packet rate = 0.0506172
Maximum accepted packet rate = 0.062 (at node 59)
Minimum injected flit rate = 0.038 (at node 52)
Average injected flit rate = 0.0505469
Maximum injected flit rate = 0.0635 (at node 43)
Minimum accepted flit rate = 0.037 (at node 21)
Average accepted flit rate = 0.0506172
Maximum accepted flit rate = 0.062 (at node 59)
Total number of injected packets = 6470
Total number of injected flits = 6470
Average injected packet length = 1
Total number of accepted packets = 6479
Total number of accepted flits = 6479
Average accepted packet length = 1
Total in-flight flits = 267 (267 measured)
===== Time: 6000 =====
Class 0:
Minimum packet latency = 8
Average packet latency = 81.5873
Maximum packet latency = 307
Minimum network latency = 9
Average network latency = 82.5873
Maximum network latency = 308
Slowest packet = 12010
Minimum flit latency = 9
Average flit latency = 83.0196
Maximum flit latency = 308
Slowest flit = 12010
Minimum fragmentation = 0
Average fragmentation = 0
Maximum fragmentation = 0
Minimum injected packet rate = 0.039 (at node 53)
Average injected packet rate = 0.0505
Maximum injected packet rate = 0.057 (at node 20)
Minimum accepted packet rate = 0.0406667 (at node 26)
Average accepted packet rate = 0.0505937
Maximum accepted packet rate = 0.0596667 (at node 59)
Minimum injected flit rate = 0.039 (at node 53)
Average injected flit rate = 0.0505
Maximum injected flit rate = 0.057 (at node 20)
Minimum accepted flit rate = 0.0406667 (at node 26)
Average accepted flit rate = 0.0505937
Maximum accepted flit rate = 0.0596667 (at node 59)
Total number of injected packets = 9696
Total number of injected flits = 9696
Average injected packet length = 1
Total number of accepted packets = 9714
Total number of accepted flits = 9714
Average accepted packet length = 1
Total in-flight flits = 258 (258 measured)
Draining remaining packets ...
Class 0:
Remaining flits: 18726 18802 18812 18838 18862 18883 18886 18892 18908 18910 [...] (225 flits)
Measured flits: 18726 18802 18812 18838 18862 18883 18886 18892 18908 18910 [...] (225 flits)
Class 0:
Remaining flits: 18802 18812 18838 18862 18883 18886 18892 18910 18920 18922 [...] (194 flits)
Measured flits: 18802 18812 18838 18862 18883 18886 18892 18910 18920 18922 [...] (194 flits)
Class 0:
Remaining flits: 18802 18838 18862 18883 18886 18910 18920 18922 18941 18956 [...] (159 flits)
Measured flits: 18802 18838 18862 18883 18886 18910 18920 18922 18941 18956 [...] (159 flits)
Class 0:
Remaining flits: 18802 18838 18886 18910 18920 18922 18956 18966 18967 18981 [...] (135 flits)
Measured flits: 18802 18838 18886 18910 18920 18922 18956 18966 18967 18981 [...] (135 flits)
Class 0:
Remaining flits: 18802 18838 18910 18920 18956 18967 18981 18989 18990 18996 [...] (118 flits)
Measured flits: 18802 18838 18910 18920 18956 18967 18981 18989 18990 18996 [...] (118 flits)
Class 0:
Remaining flits: 18802 18838 18910 18956 18967 18981 18989 18990 18996 19011 [...] (91 flits)
Measured flits: 18802 18838 18910 18956 18967 18981 18989 18990 18996 19011 [...] (91 flits)
Class 0:
Remaining flits: 18838 18956 18967 18989 18996 19034 19038 19040 19046 19060 [...] (60 flits)
Measured flits: 18838 18956 18967 18989 18996 19034 19038 19040 19046 19060 [...] (60 flits)
Class 0:
Remaining flits: 18956 18989 19040 19046 19085 19092 19096 19114 19115 19116 [...] (43 flits)
Measured flits: 18956 18989 19040 19046 19085 19092 19096 19114 19115 19116 [...] (43 flits)
Class 0:
Remaining flits: 19085 19096 19128 19137 19145 19153 19157 19161 19165 19166 [...] (25 flits)
Measured flits: 19085 19096 19128 19137 19145 19153 19157 19161 19165 19166 [...] (25 flits)
Class 0:
Remaining flits: 19085 19096 19145 19157 19161 19165 19166 19192 19200 19201 [...] (18 flits)
Measured flits: 19085 19096 19145 19157 19161 19165 19166 19192 19200 19201 [...] (18 flits)
Class 0:
Remaining flits: 19085 19145 19157 19161 19165 19166 19200 19210 19217 19218 [...] (11 flits)
Measured flits: 19085 19145 19157 19161 19165 19166 19200 19210 19217 19218 [...] (11 flits)
Class 0:
Remaining flits: 19145 19157 19165 19166 19200 19210 19218 19230 (8 flits)
Measured flits: 19145 19157 19165 19166 19200 19210 19218 19230 (8 flits)
Class 0:
Remaining flits: 19145 19157 19166 19200 19210 19218 19230 (7 flits)
Measured flits: 19145 19157 19166 19200 19210 19218 19230 (7 flits)
Class 0:
Remaining flits: 19145 19157 19166 19200 19210 19218 (6 flits)
Measured flits: 19145 19157 19166 19200 19210 19218 (6 flits)
Class 0:
Remaining flits: 19145 19166 19200 (3 flits)
Measured flits: 19145 19166 19200 (3 flits)
Class 0:
Remaining flits: 19145 19200 (2 flits)
Measured flits: 19145 19200 (2 flits)
Class 0:
Remaining flits: 19145 19200 (2 flits)
Measured flits: 19145 19200 (2 flits)
Class 0:
Remaining flits: 19145 19200 (2 flits)
Measured flits: 19145 19200 (2 flits)
Class 0:
Remaining flits: 19145 19200 (2 flits)
Measured flits: 19145 19200 (2 flits)
Class 0:
Remaining flits: 19145 19200 (2 flits)
Measured flits: 19145 19200 (2 flits)
Class 0:
Remaining flits: 19145 19200 (2 flits)
Measured flits: 19145 19200 (2 flits)
Class 0:
Remaining flits: 19145 19200 (2 flits)
Measured flits: 19145 19200 (2 flits)
Class 0:
Remaining flits: 19145 19200 (2 flits)
Measured flits: 19145 19200 (2 flits)
Class 0:
Remaining flits: 19145 19200 (2 flits)
Measured flits: 19145 19200 (2 flits)
Class 0:
Remaining flits: 19145 19200 (2 flits)
Measured flits: 19145 19200 (2 flits)
Class 0:
Remaining flits: 19145 19200 (2 flits)
Measured flits: 19145 19200 (2 flits)
Class 0:
Remaining flits: 19145 19200 (2 flits)
Measured flits: 19145 19200 (2 flits)
Class 0:
Remaining flits: 19145 19200 (2 flits)
Measured flits: 19145 19200 (2 flits)
Class 0:
Remaining flits: 19145 19200 (2 flits)
Measured flits: 19145 19200 (2 flits)
Class 0:
Remaining flits: 19145 19200 (2 flits)
Measured flits: 19145 19200 (2 flits)
Class 0:
Remaining flits: 19145 19200 (2 flits)
Measured flits: 19145 19200 (2 flits)
Class 0:
Remaining flits: 19145 19200 (2 flits)
Measured flits: 19145 19200 (2 flits)
Class 0:
Remaining flits: 19145 19200 (2 flits)
Measured flits: 19145 19200 (2 flits)
Class 0:
Remaining flits: 19145 19200 (2 flits)
Measured flits: 19145 19200 (2 flits)
Class 0:
Remaining flits: 19145 19200 (2 flits)
Measured flits: 19145 19200 (2 flits)
Class 0:
Remaining flits: 19145 19200 (2 flits)
Measured flits: 19145 19200 (2 flits)
Class 0:
Remaining flits: 19145 19200 (2 flits)
Measured flits: 19145 19200 (2 flits)
Class 0:
Remaining flits: 19145 19200 (2 flits)
Measured flits: 19145 19200 (2 flits)
Class 0:
Remaining flits: 19145 19200 (2 flits)
Measured flits: 19145 19200 (2 flits)
Class 0:
Remaining flits: 19145 19200 (2 flits)
Measured flits: 19145 19200 (2 flits)
Class 0:
Remaining flits: 19145 19200 (2 flits)
Measured flits: 19145 19200 (2 flits)
Class 0:
Remaining flits: 19145 19200 (2 flits)
Measured flits: 19145 19200 (2 flits)
Class 0:
Remaining flits: 19145 19200 (2 flits)
Measured flits: 19145 19200 (2 flits)
Class 0:
Remaining flits: 19145 19200 (2 flits)
Measured flits: 19145 19200 (2 flits)
Class 0:
Remaining flits: 19145 19200 (2 flits)
Measured flits: 19145 19200 (2 flits)
Class 0:
Remaining flits: 19145 19200 (2 flits)
Measured flits: 19145 19200 (2 flits)
Class 0:
Remaining flits: 19145 19200 (2 flits)
Measured flits: 19145 19200 (2 flits)
Class 0:
Remaining flits: 19145 19200 (2 flits)
Measured flits: 19145 19200 (2 flits)
Class 0:
Remaining flits: 19145 19200 (2 flits)
Measured flits: 19145 19200 (2 flits)
Class 0:
Remaining flits: 19145 19200 (2 flits)
Measured flits: 19145 19200 (2 flits)
Class 0:
Remaining flits: 19145 19200 (2 flits)
Measured flits: 19145 19200 (2 flits)
Class 0:
Remaining flits: 19145 19200 (2 flits)
Measured flits: 19145 19200 (2 flits)
Class 0:
Remaining flits: 19145 19200 (2 flits)
Measured flits: 19145 19200 (2 flits)
Class 0:
Remaining flits: 19145 19200 (2 flits)
Measured flits: 19145 19200 (2 flits)
Class 0:
Remaining flits: 19145 19200 (2 flits)
Measured flits: 19145 19200 (2 flits)
Class 0:
Remaining flits: 19145 19200 (2 flits)
Measured flits: 19145 19200 (2 flits)
Class 0:
Remaining flits: 19145 19200 (2 flits)
Measured flits: 19145 19200 (2 flits)
Class 0:
Remaining flits: 19145 19200 (2 flits)
Measured flits: 19145 19200 (2 flits)
Class 0:
Remaining flits: 19145 19200 (2 flits)
Measured flits: 19145 19200 (2 flits)
Class 0:
Remaining flits: 19145 19200 (2 flits)
Measured flits: 19145 19200 (2 flits)
Class 0:
Remaining flits: 19145 19200 (2 flits)
Measured flits: 19145 19200 (2 flits)
Class 0:
Remaining flits: 19145 19200 (2 flits)
Measured flits: 19145 19200 (2 flits)
Class 0:
Remaining flits: 19145 19200 (2 flits)
Measured flits: 19145 19200 (2 flits)
Class 0:
Remaining flits: 19145 19200 (2 flits)
Measured flits: 19145 19200 (2 flits)
Class 0:
Remaining flits: 19145 19200 (2 flits)
Measured flits: 19145 19200 (2 flits)
Class 0:
Remaining flits: 19145 19200 (2 flits)
Measured flits: 19145 19200 (2 flits)
Class 0:
Remaining flits: 19145 19200 (2 flits)
Measured flits: 19145 19200 (2 flits)
Class 0:
Remaining flits: 19145 19200 (2 flits)
Measured flits: 19145 19200 (2 flits)
Class 0:
Remaining flits: 19145 19200 (2 flits)
Measured flits: 19145 19200 (2 flits)
Class 0:
Remaining flits: 19145 19200 (2 flits)
Measured flits: 19145 19200 (2 flits)
Class 0:
Remaining flits: 19145 19200 (2 flits)
Measured flits: 19145 19200 (2 flits)
Class 0:
Remaining flits: 19145 19200 (2 flits)
Measured flits: 19145 19200 (2 flits)
Class 0:
Remaining flits: 19145 19200 (2 flits)
Measured flits: 19145 19200 (2 flits)
Class 0:
Remaining flits: 19145 19200 (2 flits)
Measured flits: 19145 19200 (2 flits)
Class 0:
Remaining flits: 19145 19200 (2 flits)
Measured flits: 19145 19200 (2 flits)
Class 0:
Remaining flits: 19145 19200 (2 flits)
Measured flits: 19145 19200 (2 flits)
Class 0:
Remaining flits: 19145 19200 (2 flits)
Measured flits: 19145 19200 (2 flits)
Class 0:
Remaining flits: 19145 19200 (2 flits)
Measured flits: 19145 19200 (2 flits)
Class 0:
Remaining flits: 19145 19200 (2 flits)
Measured flits: 19145 19200 (2 flits)
Class 0:
Remaining flits: 19145 19200 (2 flits)
Measured flits: 19145 19200 (2 flits)
Class 0:
Remaining flits: 19145 19200 (2 flits)
Measured flits: 19145 19200 (2 flits)
Class 0:
Remaining flits: 19145 19200 (2 flits)
Measured flits: 19145 19200 (2 flits)
Class 0:
Remaining flits: 19145 19200 (2 flits)
Measured flits: 19145 19200 (2 flits)
Class 0:
Remaining flits: 19145 19200 (2 flits)
Measured flits: 19145 19200 (2 flits)
Class 0:
Remaining flits: 19145 19200 (2 flits)
Measured flits: 19145 19200 (2 flits)
Class 0:
Remaining flits: 19145 19200 (2 flits)
Measured flits: 19145 19200 (2 flits)
Class 0:
Remaining flits: 19145 19200 (2 flits)
Measured flits: 19145 19200 (2 flits)
Class 0:
Remaining flits: 19145 19200 (2 flits)
Measured flits: 19145 19200 (2 flits)
Class 0:
Remaining flits: 19145 19200 (2 flits)
Measured flits: 19145 19200 (2 flits)
Class 0:
Remaining flits: 19145 19200 (2 flits)
Measured flits: 19145 19200 (2 flits)
Class 0:
Remaining flits: 19145 19200 (2 flits)
Measured flits: 19145 19200 (2 flits)
Class 0:
Remaining flits: 19145 19200 (2 flits)
Measured flits: 19145 19200 (2 flits)
Class 0:
Remaining flits: 19145 19200 (2 flits)
Measured flits: 19145 19200 (2 flits)
Class 0:
Remaining flits: 19145 19200 (2 flits)
Measured flits: 19145 19200 (2 flits)
Class 0:
Remaining flits: 19145 19200 (2 flits)
Measured flits: 19145 19200 (2 flits)
Class 0:
Remaining flits: 19145 19200 (2 flits)
Measured flits: 19145 19200 (2 flits)
Class 0:
Remaining flits: 19145 19200 (2 flits)
Measured flits: 19145 19200 (2 flits)
Class 0:
Remaining flits: 19145 19200 (2 flits)
Measured flits: 19145 19200 (2 flits)
Class 0:
Remaining flits: 19145 19200 (2 flits)
Measured flits: 19145 19200 (2 flits)
Class 0:
Remaining flits: 19145 19200 (2 flits)
Measured flits: 19145 19200 (2 flits)
Class 0:
Remaining flits: 19145 19200 (2 flits)
Measured flits: 19145 19200 (2 flits)
Time taken is 7000 cycles
====== Traffic class 0 ======

Total number of flits generated = 19238, changed lanes = 18947
Overall minimum packet latency = 8 (1 samples)
Overall average packet latency = 81.9453 (1 samples)
Overall maximum packet latency = 307 (1 samples)
Overall minimum network latency = 9 (1 samples)
Overall average network latency = 82.9453 (1 samples)
Overall maximum network latency = 308 (1 samples)
Overall minimum flit latency = 9 (1 samples)
Overall average flit latency = 83.3566 (1 samples)
Overall maximum flit latency = 308 (1 samples)
Overall minimum fragmentation = 0 (1 samples)
Overall average fragmentation = 0 (1 samples)
Overall maximum fragmentation = 0 (1 samples)
Overall minimum injected packet rate = 0.039 (1 samples)
Overall average injected packet rate = 0.0505 (1 samples)
Overall maximum injected packet rate = 0.057 (1 samples)
Overall minimum accepted packet rate = 0.0406667 (1 samples)
Overall average accepted packet rate = 0.0505937 (1 samples)
Overall maximum accepted packet rate = 0.0596667 (1 samples)
Overall minimum injected flit rate = 0.039 (1 samples)
Overall average injected flit rate = 0.0505 (1 samples)
Overall maximum injected flit rate = 0.057 (1 samples)
Overall minimum accepted flit rate = 0.0406667 (1 samples)
Overall average accepted flit rate = 0.0505937 (1 samples)
Overall maximum accepted flit rate = 0.0596667 (1 samples)
Overall average injected packet size = 1 (1 samples)
Overall average accepted packet size = 1 (1 samples)
Overall average hops = 6.29585 (1 samples)
Overall throughput of the network (flits/cycle) = 6.412
Overall throughput of the network (packets/cycle) = 6.412
Total run time 35.5647
