make: Nothing to be done for 'all'.
Master: Running timer....
Master: Running SRC....
BEGIN Configuration File: ./examples/bitrev
// Topology

topology = mesh;
k = 16;
n = 2;

// Routing
routing_function = dor;

// Flow control
num_vcs     = 4;
vc_buf_size = 4;
wait_for_tail_credit = 0;

// Router architecture
vc_allocator = islip;
sw_allocator = islip;
alloc_iters  = 1;

credit_delay   = 1;
routing_delay  = 1;
vc_alloc_delay = 1;
sw_alloc_delay = 1;

input_speedup     = 1;
output_speedup    = 1;
internal_speedup  = 1.0;

vc_busy_when_full = 0;

// Traffic
traffic = uniform;
packet_size = 1;

// Simulation
sim_type = throughput;

injection_rate = 0.05;

END Configuration File: ./examples/bitrev
===== Time: 100 =====
Class 0:
Minimum packet latency = 8
Average packet latency = 49.8878
Maximum packet latency = 93
Minimum network latency = 9
Average network latency = 50.8878
Maximum network latency = 94
Slowest packet = 19
Minimum flit latency = 9
Average flit latency = 50.8878
Maximum flit latency = 94
Slowest flit = 19
Minimum fragmentation = 0
Average fragmentation = 0
Maximum fragmentation = 0
Minimum injected packet rate = 0 (at node 91)
Average injected packet rate = 0.0496875
Maximum injected packet rate = 0.11 (at node 122)
Minimum accepted packet rate = 0 (at node 0)
Average accepted packet rate = 0.00382812
Maximum accepted packet rate = 0.03 (at node 53)
Minimum injected flit rate = 0 (at node 91)
Average injected flit rate = 0.0496875
Maximum injected flit rate = 0.11 (at node 122)
Minimum accepted flit rate = 0 (at node 0)
Average accepted flit rate = 0.00382812
Maximum accepted flit rate = 0.03 (at node 53)
Total number of injected packets = 1272
Total number of injected flits = 1272
Average injected packet length = 1
Total number of accepted packets = 98
Total number of accepted flits = 98
Average accepted packet length = 1
Total in-flight flits = 1174 (0 measured)
===== Time: 200 =====
Class 0:
Minimum packet latency = 8
Average packet latency = 93.0754
Maximum packet latency = 186
Minimum network latency = 9
Average network latency = 94.0754
Maximum network latency = 187
Slowest packet = 65
Minimum flit latency = 9
Average flit latency = 94.0754
Maximum flit latency = 187
Slowest flit = 65
Minimum fragmentation = 0
Average fragmentation = 0
Maximum fragmentation = 0
Minimum injected packet rate = 0.005 (at node 202)
Average injected packet rate = 0.0500391
Maximum injected packet rate = 0.095 (at node 10)
Minimum accepted packet rate = 0 (at node 4)
Average accepted packet rate = 0.0139844
Maximum accepted packet rate = 0.045 (at node 135)
Minimum injected flit rate = 0.005 (at node 202)
Average injected flit rate = 0.0500391
Maximum injected flit rate = 0.095 (at node 10)
Minimum accepted flit rate = 0 (at node 4)
Average accepted flit rate = 0.0139844
Maximum accepted flit rate = 0.045 (at node 135)
Total number of injected packets = 2562
Total number of injected flits = 2562
Average injected packet length = 1
Total number of accepted packets = 716
Total number of accepted flits = 716
Average accepted packet length = 1
Total in-flight flits = 1846 (0 measured)
===== Time: 300 =====
Class 0:
Minimum packet latency = 8
Average packet latency = 142.003
Maximum packet latency = 289
Minimum network latency = 9
Average network latency = 143.003
Maximum network latency = 290
Slowest packet = 81
Minimum flit latency = 9
Average flit latency = 143.003
Maximum flit latency = 290
Slowest flit = 81
Minimum fragmentation = 0
Average fragmentation = 0
Maximum fragmentation = 0
Minimum injected packet rate = 0 (at node 10)
Average injected packet rate = 0.0475
Maximum injected packet rate = 0.11 (at node 218)
Minimum accepted packet rate = 0 (at node 114)
Average accepted packet rate = 0.0345703
Maximum accepted packet rate = 0.12 (at node 159)
Minimum injected flit rate = 0 (at node 10)
Average injected flit rate = 0.0475
Maximum injected flit rate = 0.11 (at node 218)
Minimum accepted flit rate = 0 (at node 114)
Average accepted flit rate = 0.0345703
Maximum accepted flit rate = 0.12 (at node 159)
Total number of injected packets = 1216
Total number of injected flits = 1216
Average injected packet length = 1
Total number of accepted packets = 885
Total number of accepted flits = 885
Average accepted packet length = 1
Total in-flight flits = 2177 (0 measured)
===== Time: 400 =====
Class 0:
Minimum packet latency = 9
Average packet latency = 46.0161
Maximum packet latency = 97
Minimum network latency = 10
Average network latency = 47.0161
Maximum network latency = 98
Slowest packet = 3797
Minimum flit latency = 10
Average flit latency = 169.776
Maximum flit latency = 363
Slowest flit = 363
Minimum fragmentation = 0
Average fragmentation = 0
Maximum fragmentation = 0
Minimum injected packet rate = 0 (at node 66)
Average injected packet rate = 0.0503125
Maximum injected packet rate = 0.12 (at node 25)
Minimum accepted packet rate = 0 (at node 44)
Average accepted packet rate = 0.0376172
Maximum accepted packet rate = 0.1 (at node 46)
Minimum injected flit rate = 0 (at node 66)
Average injected flit rate = 0.0503125
Maximum injected flit rate = 0.12 (at node 25)
Minimum accepted flit rate = 0 (at node 44)
Average accepted flit rate = 0.0376172
Maximum accepted flit rate = 0.1 (at node 46)
Total number of injected packets = 1288
Total number of injected flits = 1288
Average injected packet length = 1
Total number of accepted packets = 963
Total number of accepted flits = 963
Average accepted packet length = 1
Total in-flight flits = 2502 (1226 measured)
===== Time: 500 =====
Class 0:
Minimum packet latency = 8
Average packet latency = 88.0308
Maximum packet latency = 191
Minimum network latency = 9
Average network latency = 89.0308
Maximum network latency = 192
Slowest packet = 3836
Minimum flit latency = 9
Average flit latency = 182.785
Maximum flit latency = 456
Slowest flit = 501
Minimum fragmentation = 0
Average fragmentation = 0
Maximum fragmentation = 0
Minimum injected packet rate = 0.01 (at node 207)
Average injected packet rate = 0.0500781
Maximum injected packet rate = 0.095 (at node 165)
Minimum accepted packet rate = 0.01 (at node 34)
Average accepted packet rate = 0.0386133
Maximum accepted packet rate = 0.08 (at node 49)
Minimum injected flit rate = 0.01 (at node 207)
Average injected flit rate = 0.0500781
Maximum injected flit rate = 0.095 (at node 165)
Minimum accepted flit rate = 0.01 (at node 34)
Average accepted flit rate = 0.0386133
Maximum accepted flit rate = 0.08 (at node 49)
Total number of injected packets = 2564
Total number of injected flits = 2564
Average injected packet length = 1
Total number of accepted packets = 1977
Total number of accepted flits = 1977
Average accepted packet length = 1
Total in-flight flits = 2764 (2175 measured)
===== Time: 600 =====
Class 0:
Minimum packet latency = 8
Average packet latency = 127.134
Maximum packet latency = 288
Minimum network latency = 9
Average network latency = 128.134
Maximum network latency = 289
Slowest packet = 3877
Minimum flit latency = 9
Average flit latency = 191.452
Maximum flit latency = 486
Slowest flit = 1359
Minimum fragmentation = 0
Average fragmentation = 0
Maximum fragmentation = 0
Minimum injected packet rate = 0.0166667 (at node 169)
Average injected packet rate = 0.0501693
Maximum injected packet rate = 0.0933333 (at node 47)
Minimum accepted packet rate = 0.00666667 (at node 121)
Average accepted packet rate = 0.0388802
Maximum accepted packet rate = 0.0666667 (at node 18)
Minimum injected flit rate = 0.0166667 (at node 169)
Average injected flit rate = 0.0501693
Maximum injected flit rate = 0.0933333 (at node 47)
Minimum accepted flit rate = 0.00666667 (at node 121)
Average accepted flit rate = 0.0388802
Maximum accepted flit rate = 0.0666667 (at node 18)
Total number of injected packets = 3853
Total number of injected flits = 3853
Average injected packet length = 1
Total number of accepted packets = 2986
Total number of accepted flits = 2986
Average accepted packet length = 1
Total in-flight flits = 3044 (2795 measured)
===== Time: 700 =====
Class 0:
Minimum packet latency = 8
Average packet latency = 157.476
Maximum packet latency = 386
Minimum network latency = 9
Average network latency = 158.476
Maximum network latency = 387
Slowest packet = 3859
Minimum flit latency = 9
Average flit latency = 200.421
Maximum flit latency = 593
Slowest flit = 1043
Minimum fragmentation = 0
Average fragmentation = 0
Maximum fragmentation = 0
Minimum injected packet rate = 0.025 (at node 34)
Average injected packet rate = 0.0497949
Maximum injected packet rate = 0.09 (at node 47)
Minimum accepted packet rate = 0.0125 (at node 251)
Average accepted packet rate = 0.039375
Maximum accepted packet rate = 0.065 (at node 18)
Minimum injected flit rate = 0.025 (at node 34)
Average injected flit rate = 0.0497949
Maximum injected flit rate = 0.09 (at node 47)
Minimum accepted flit rate = 0.0125 (at node 251)
Average accepted flit rate = 0.039375
Maximum accepted flit rate = 0.065 (at node 18)
Total number of injected packets = 5099
Total number of injected flits = 5099
Average injected packet length = 1
Total number of accepted packets = 4032
Total number of accepted flits = 4032
Average accepted packet length = 1
Total in-flight flits = 3244 (3149 measured)
Draining remaining packets ...
Class 0:
Remaining flits: 1300 1740 1752 2068 2216 2297 2317 2475 2507 2551 [...] (3129 flits)
Measured flits: 3788 3789 3790 3803 3817 3821 3822 3837 3846 3851 [...] (3043 flits)
Class 0:
Remaining flits: 1300 1752 2216 2297 2475 2507 2551 2588 2606 2625 [...] (3033 flits)
Measured flits: 3788 3789 3790 3803 3817 3821 3822 3837 3846 3851 [...] (2959 flits)
Class 0:
Remaining flits: 1300 1752 2216 2297 2475 2507 2551 2588 2606 2625 [...] (2922 flits)
Measured flits: 3788 3789 3803 3821 3822 3846 3853 3854 3863 3892 [...] (2855 flits)
Class 0:
Remaining flits: 1300 1752 2297 2507 2551 2588 2606 2625 2679 2731 [...] (2808 flits)
Measured flits: 3788 3789 3803 3821 3846 3853 3854 3863 3892 3901 [...] (2751 flits)
Class 0:
Remaining flits: 1300 1752 2297 2507 2551 2588 2606 2625 2679 2731 [...] (2717 flits)
Measured flits: 3788 3789 3803 3846 3853 3854 3863 3892 3901 3914 [...] (2663 flits)
Class 0:
Remaining flits: 1300 1752 2297 2507 2551 2588 2606 2625 2679 2731 [...] (2619 flits)
Measured flits: 3788 3789 3803 3846 3853 3863 3892 3901 3914 3915 [...] (2569 flits)
Class 0:
Remaining flits: 1300 1752 2297 2551 2588 2606 2625 2679 2731 2732 [...] (2520 flits)
Measured flits: 3788 3789 3846 3853 3863 3892 3901 3914 3915 3918 [...] (2475 flits)
Class 0:
Remaining flits: 1300 1752 2297 2551 2588 2606 2679 2731 2732 2817 [...] (2415 flits)
Measured flits: 3788 3789 3846 3853 3863 3892 3901 3915 3920 3982 [...] (2375 flits)
Class 0:
Remaining flits: 1300 2297 2551 2588 2606 2679 2731 2732 2817 2820 [...] (2332 flits)
Measured flits: 3788 3789 3846 3853 3863 3892 3901 3920 3982 3988 [...] (2295 flits)
Class 0:
Remaining flits: 2297 2551 2588 2679 2731 2817 2820 2916 2926 3013 [...] (2239 flits)
Measured flits: 3788 3789 3846 3853 3863 3892 3901 3920 3982 3988 [...] (2210 flits)
Class 0:
Remaining flits: 2297 2551 2588 2679 2731 2817 2926 3013 3076 3131 [...] (2131 flits)
Measured flits: 3788 3789 3846 3853 3863 3892 3901 3982 4005 4008 [...] (2104 flits)
Class 0:
Remaining flits: 2297 2551 2588 2731 2817 2926 3076 3131 3149 3152 [...] (2032 flits)
Measured flits: 3788 3789 3846 3853 3863 3892 3901 3982 4005 4008 [...] (2010 flits)
Class 0:
Remaining flits: 2297 2588 2731 2817 2926 3076 3131 3213 3311 3384 [...] (1932 flits)
Measured flits: 3788 3789 3853 3863 3892 3901 3982 4005 4008 4033 [...] (1913 flits)
Class 0:
Remaining flits: 2731 2817 2926 3131 3213 3311 3384 3421 3435 3451 [...] (1843 flits)
Measured flits: 3788 3789 3853 3863 3892 3901 3982 4005 4008 4033 [...] (1827 flits)
Class 0:
Remaining flits: 2731 2926 3131 3213 3311 3384 3435 3451 3493 3543 [...] (1752 flits)
Measured flits: 3788 3789 3853 3863 3892 3982 4005 4033 4069 4092 [...] (1738 flits)
Class 0:
Remaining flits: 2731 3131 3311 3384 3435 3451 3493 3543 3596 3657 [...] (1669 flits)
Measured flits: 3788 3789 3853 3863 3892 3982 4005 4033 4069 4092 [...] (1657 flits)
Class 0:
Remaining flits: 2731 3131 3311 3435 3451 3493 3543 3657 3660 3788 [...] (1586 flits)
Measured flits: 3788 3789 3853 3863 3892 3982 4005 4033 4069 4092 [...] (1577 flits)
Class 0:
Remaining flits: 2731 3311 3435 3451 3493 3543 3657 3660 3853 3863 [...] (1494 flits)
Measured flits: 3853 3863 3892 3982 4005 4033 4069 4092 4103 4124 [...] (1486 flits)
Class 0:
Remaining flits: 2731 3311 3435 3451 3493 3543 3660 3853 3863 3892 [...] (1405 flits)
Measured flits: 3853 3863 3892 3982 4033 4069 4092 4103 4124 4134 [...] (1398 flits)
Class 0:
Remaining flits: 3311 3435 3493 3543 3660 3853 3863 3892 3982 4033 [...] (1301 flits)
Measured flits: 3853 3863 3892 3982 4033 4069 4092 4103 4134 4191 [...] (1296 flits)
Class 0:
Remaining flits: 3311 3435 3543 3660 3853 3863 3892 3982 4033 4069 [...] (1237 flits)
Measured flits: 3853 3863 3892 3982 4033 4069 4092 4103 4134 4191 [...] (1233 flits)
Class 0:
Remaining flits: 3311 3435 3543 3660 4033 4069 4092 4134 4191 4224 [...] (1159 flits)
Measured flits: 4033 4069 4092 4134 4191 4224 4230 4241 4322 4366 [...] (1155 flits)
Class 0:
Remaining flits: 3311 3435 3543 3660 4033 4069 4092 4134 4191 4224 [...] (1093 flits)
Measured flits: 4033 4069 4092 4134 4191 4224 4230 4241 4322 4366 [...] (1089 flits)
Class 0:
Remaining flits: 3311 3543 3660 4069 4092 4134 4191 4224 4230 4241 [...] (1012 flits)
Measured flits: 4069 4092 4134 4191 4224 4230 4241 4322 4366 4433 [...] (1009 flits)
Class 0:
Remaining flits: 3311 3660 4069 4092 4134 4191 4224 4230 4241 4322 [...] (946 flits)
Measured flits: 4069 4092 4134 4191 4224 4230 4241 4322 4433 4490 [...] (944 flits)
Class 0:
Remaining flits: 3311 3660 4069 4092 4134 4191 4230 4241 4322 4433 [...] (870 flits)
Measured flits: 4069 4092 4134 4191 4230 4241 4322 4433 4490 4523 [...] (868 flits)
Class 0:
Remaining flits: 3311 3660 4069 4092 4134 4191 4322 4433 4490 4523 [...] (798 flits)
Measured flits: 4069 4092 4134 4191 4322 4433 4490 4523 4569 4570 [...] (796 flits)
Class 0:
Remaining flits: 3311 3660 4069 4092 4191 4433 4523 4569 4570 4609 [...] (727 flits)
Measured flits: 4069 4092 4191 4433 4523 4569 4570 4609 4611 4644 [...] (725 flits)
Class 0:
Remaining flits: 3660 4069 4092 4523 4569 4570 4611 4644 4646 4656 [...] (647 flits)
Measured flits: 4069 4092 4523 4569 4570 4611 4644 4646 4656 4768 [...] (646 flits)
Class 0:
Remaining flits: 4069 4523 4569 4611 4644 4646 4656 4952 4965 5022 [...] (584 flits)
Measured flits: 4069 4523 4569 4611 4644 4646 4656 4952 4965 5022 [...] (584 flits)
Class 0:
Remaining flits: 4523 4569 4611 4646 4656 4952 5022 5047 5111 5151 [...] (526 flits)
Measured flits: 4523 4569 4611 4646 4656 4952 5022 5047 5111 5151 [...] (526 flits)
Class 0:
Remaining flits: 4523 4569 4611 4646 4656 4952 5022 5047 5151 5282 [...] (457 flits)
Measured flits: 4523 4569 4611 4646 4656 4952 5022 5047 5151 5282 [...] (457 flits)
Class 0:
Remaining flits: 4523 4569 4611 4646 4656 5022 5047 5282 5288 5342 [...] (393 flits)
Measured flits: 4523 4569 4611 4646 4656 5022 5047 5282 5288 5342 [...] (393 flits)
Class 0:
Remaining flits: 4523 4569 4611 4646 4656 5022 5047 5282 5288 5342 [...] (358 flits)
Measured flits: 4523 4569 4611 4646 4656 5022 5047 5282 5288 5342 [...] (358 flits)
Class 0:
Remaining flits: 4611 4646 4656 5022 5047 5282 5357 5420 5447 5496 [...] (321 flits)
Measured flits: 4611 4646 4656 5022 5047 5282 5357 5420 5447 5496 [...] (321 flits)
Class 0:
Remaining flits: 4656 5047 5282 5357 5447 5501 5610 5809 5923 6035 [...] (269 flits)
Measured flits: 4656 5047 5282 5357 5447 5501 5610 5809 5923 6035 [...] (269 flits)
Class 0:
Remaining flits: 4656 5047 5282 5357 5447 5501 5610 5923 6035 6045 [...] (233 flits)
Measured flits: 4656 5047 5282 5357 5447 5501 5610 5923 6035 6045 [...] (233 flits)
Class 0:
Remaining flits: 5282 5357 5447 5501 6045 6064 6197 6202 6232 6237 [...] (199 flits)
Measured flits: 5282 5357 5447 5501 6045 6064 6197 6202 6232 6237 [...] (199 flits)
Class 0:
Remaining flits: 5357 5501 6045 6064 6197 6202 6232 6237 6343 6369 [...] (166 flits)
Measured flits: 5357 5501 6045 6064 6197 6202 6232 6237 6343 6369 [...] (166 flits)
Class 0:
Remaining flits: 5357 5501 6045 6064 6197 6202 6232 6369 6408 6437 [...] (136 flits)
Measured flits: 5357 5501 6045 6064 6197 6202 6232 6369 6408 6437 [...] (136 flits)
Class 0:
Remaining flits: 6045 6064 6197 6202 6232 6369 6408 6437 6466 6471 [...] (120 flits)
Measured flits: 6045 6064 6197 6202 6232 6369 6408 6437 6466 6471 [...] (120 flits)
Class 0:
Remaining flits: 6045 6064 6197 6202 6232 6369 6408 6437 6466 6471 [...] (113 flits)
Measured flits: 6045 6064 6197 6202 6232 6369 6408 6437 6466 6471 [...] (113 flits)
Class 0:
Remaining flits: 6045 6197 6202 6232 6369 6408 6437 6466 6499 6668 [...] (101 flits)
Measured flits: 6045 6197 6202 6232 6369 6408 6437 6466 6499 6668 [...] (101 flits)
Class 0:
Remaining flits: 6045 6197 6202 6232 6369 6408 6437 6466 6499 6668 [...] (95 flits)
Measured flits: 6045 6197 6202 6232 6369 6408 6437 6466 6499 6668 [...] (95 flits)
Class 0:
Remaining flits: 6045 6197 6202 6232 6369 6466 6499 6668 6738 6818 [...] (84 flits)
Measured flits: 6045 6197 6202 6232 6369 6466 6499 6668 6738 6818 [...] (84 flits)
Class 0:
Remaining flits: 6045 6197 6232 6369 6466 6499 6738 6818 6819 6904 [...] (78 flits)
Measured flits: 6045 6197 6232 6369 6466 6499 6738 6818 6819 6904 [...] (78 flits)
Class 0:
Remaining flits: 6045 6197 6232 6369 6466 6499 6738 6818 6819 6904 [...] (76 flits)
Measured flits: 6045 6197 6232 6369 6466 6499 6738 6818 6819 6904 [...] (76 flits)
Class 0:
Remaining flits: 6045 6197 6232 6369 6466 6499 6738 6818 6819 6904 [...] (71 flits)
Measured flits: 6045 6197 6232 6369 6466 6499 6738 6818 6819 6904 [...] (71 flits)
Class 0:
Remaining flits: 6045 6197 6232 6369 6466 6499 6738 6818 6819 6904 [...] (69 flits)
Measured flits: 6045 6197 6232 6369 6466 6499 6738 6818 6819 6904 [...] (69 flits)
Class 0:
Remaining flits: 6045 6197 6232 6369 6466 6499 6818 6819 6904 7044 [...] (65 flits)
Measured flits: 6045 6197 6232 6369 6466 6499 6818 6819 6904 7044 [...] (65 flits)
Class 0:
Remaining flits: 6045 6197 6232 6369 6466 6499 6818 6819 6904 7044 [...] (63 flits)
Measured flits: 6045 6197 6232 6369 6466 6499 6818 6819 6904 7044 [...] (63 flits)
Class 0:
Remaining flits: 6045 6197 6232 6369 6466 6499 6818 6819 6904 7044 [...] (61 flits)
Measured flits: 6045 6197 6232 6369 6466 6499 6818 6819 6904 7044 [...] (61 flits)
Class 0:
Remaining flits: 6045 6197 6232 6369 6466 6499 6818 6819 6904 7044 [...] (61 flits)
Measured flits: 6045 6197 6232 6369 6466 6499 6818 6819 6904 7044 [...] (61 flits)
Class 0:
Remaining flits: 6045 6197 6232 6369 6466 6499 6818 6819 6904 7044 [...] (60 flits)
Measured flits: 6045 6197 6232 6369 6466 6499 6818 6819 6904 7044 [...] (60 flits)
Class 0:
Remaining flits: 6045 6197 6232 6369 6466 6818 6819 6904 7044 7118 [...] (58 flits)
Measured flits: 6045 6197 6232 6369 6466 6818 6819 6904 7044 7118 [...] (58 flits)
Class 0:
Remaining flits: 6045 6197 6232 6369 6466 6818 6819 6904 7044 7118 [...] (57 flits)
Measured flits: 6045 6197 6232 6369 6466 6818 6819 6904 7044 7118 [...] (57 flits)
Class 0:
Remaining flits: 6045 6197 6232 6369 6466 6818 6819 6904 7044 7118 [...] (57 flits)
Measured flits: 6045 6197 6232 6369 6466 6818 6819 6904 7044 7118 [...] (57 flits)
Class 0:
Remaining flits: 6045 6197 6232 6369 6466 6818 6819 7044 7118 7170 [...] (55 flits)
Measured flits: 6045 6197 6232 6369 6466 6818 6819 7044 7118 7170 [...] (55 flits)
Class 0:
Remaining flits: 6045 6197 6232 6369 6466 6818 6819 7044 7118 7170 [...] (55 flits)
Measured flits: 6045 6197 6232 6369 6466 6818 6819 7044 7118 7170 [...] (55 flits)
Class 0:
Remaining flits: 6045 6197 6232 6369 6466 6818 6819 7044 7118 7170 [...] (55 flits)
Measured flits: 6045 6197 6232 6369 6466 6818 6819 7044 7118 7170 [...] (55 flits)
Class 0:
Remaining flits: 6045 6197 6232 6369 6466 6818 6819 7044 7118 7170 [...] (54 flits)
Measured flits: 6045 6197 6232 6369 6466 6818 6819 7044 7118 7170 [...] (54 flits)
Class 0:
Remaining flits: 6045 6197 6232 6369 6466 6818 6819 7044 7118 7170 [...] (54 flits)
Measured flits: 6045 6197 6232 6369 6466 6818 6819 7044 7118 7170 [...] (54 flits)
Class 0:
Remaining flits: 6045 6197 6232 6369 6466 6818 6819 7044 7118 7170 [...] (54 flits)
Measured flits: 6045 6197 6232 6369 6466 6818 6819 7044 7118 7170 [...] (54 flits)
Class 0:
Remaining flits: 6045 6197 6232 6369 6466 6818 6819 7044 7118 7170 [...] (54 flits)
Measured flits: 6045 6197 6232 6369 6466 6818 6819 7044 7118 7170 [...] (54 flits)
Class 0:
Remaining flits: 6045 6197 6232 6369 6466 6818 6819 7044 7118 7170 [...] (54 flits)
Measured flits: 6045 6197 6232 6369 6466 6818 6819 7044 7118 7170 [...] (54 flits)
Class 0:
Remaining flits: 6045 6197 6232 6369 6466 6818 6819 7044 7118 7170 [...] (54 flits)
Measured flits: 6045 6197 6232 6369 6466 6818 6819 7044 7118 7170 [...] (54 flits)
Class 0:
Remaining flits: 6045 6197 6232 6369 6466 6818 6819 7044 7118 7170 [...] (54 flits)
Measured flits: 6045 6197 6232 6369 6466 6818 6819 7044 7118 7170 [...] (54 flits)
Class 0:
Remaining flits: 6045 6197 6232 6369 6466 6818 6819 7044 7118 7170 [...] (53 flits)
Measured flits: 6045 6197 6232 6369 6466 6818 6819 7044 7118 7170 [...] (53 flits)
Class 0:
Remaining flits: 6045 6197 6232 6369 6466 6818 6819 7044 7118 7170 [...] (53 flits)
Measured flits: 6045 6197 6232 6369 6466 6818 6819 7044 7118 7170 [...] (53 flits)
Class 0:
Remaining flits: 6045 6197 6232 6369 6466 6818 6819 7044 7118 7170 [...] (53 flits)
Measured flits: 6045 6197 6232 6369 6466 6818 6819 7044 7118 7170 [...] (53 flits)
Class 0:
Remaining flits: 6045 6197 6232 6369 6466 6818 6819 7044 7118 7170 [...] (53 flits)
Measured flits: 6045 6197 6232 6369 6466 6818 6819 7044 7118 7170 [...] (53 flits)
Class 0:
Remaining flits: 6045 6197 6232 6369 6466 6818 6819 7044 7118 7170 [...] (53 flits)
Measured flits: 6045 6197 6232 6369 6466 6818 6819 7044 7118 7170 [...] (53 flits)
Class 0:
Remaining flits: 6045 6197 6232 6369 6466 6818 6819 7044 7118 7170 [...] (53 flits)
Measured flits: 6045 6197 6232 6369 6466 6818 6819 7044 7118 7170 [...] (53 flits)
Class 0:
Remaining flits: 6045 6197 6232 6369 6466 6818 6819 7044 7118 7170 [...] (53 flits)
Measured flits: 6045 6197 6232 6369 6466 6818 6819 7044 7118 7170 [...] (53 flits)
Class 0:
Remaining flits: 6045 6197 6232 6369 6466 6818 6819 7044 7118 7170 [...] (53 flits)
Measured flits: 6045 6197 6232 6369 6466 6818 6819 7044 7118 7170 [...] (53 flits)
Class 0:
Remaining flits: 6045 6197 6232 6369 6466 6818 6819 7044 7118 7170 [...] (53 flits)
Measured flits: 6045 6197 6232 6369 6466 6818 6819 7044 7118 7170 [...] (53 flits)
Class 0:
Remaining flits: 6045 6197 6232 6369 6466 6818 6819 7044 7118 7170 [...] (53 flits)
Measured flits: 6045 6197 6232 6369 6466 6818 6819 7044 7118 7170 [...] (53 flits)
Class 0:
Remaining flits: 6045 6197 6232 6369 6466 6818 6819 7044 7118 7170 [...] (53 flits)
Measured flits: 6045 6197 6232 6369 6466 6818 6819 7044 7118 7170 [...] (53 flits)
Class 0:
Remaining flits: 6045 6197 6232 6369 6466 6818 6819 7044 7118 7170 [...] (53 flits)
Measured flits: 6045 6197 6232 6369 6466 6818 6819 7044 7118 7170 [...] (53 flits)
Class 0:
Remaining flits: 6045 6197 6232 6369 6466 6818 6819 7044 7118 7170 [...] (53 flits)
Measured flits: 6045 6197 6232 6369 6466 6818 6819 7044 7118 7170 [...] (53 flits)
Class 0:
Remaining flits: 6045 6197 6232 6369 6466 6818 6819 7044 7118 7170 [...] (53 flits)
Measured flits: 6045 6197 6232 6369 6466 6818 6819 7044 7118 7170 [...] (53 flits)
Class 0:
Remaining flits: 6045 6197 6232 6369 6466 6818 6819 7044 7118 7170 [...] (53 flits)
Measured flits: 6045 6197 6232 6369 6466 6818 6819 7044 7118 7170 [...] (53 flits)
Class 0:
Remaining flits: 6045 6197 6232 6369 6466 6818 6819 7044 7118 7170 [...] (53 flits)
Measured flits: 6045 6197 6232 6369 6466 6818 6819 7044 7118 7170 [...] (53 flits)
Class 0:
Remaining flits: 6045 6197 6232 6369 6466 6818 6819 7044 7118 7170 [...] (53 flits)
Measured flits: 6045 6197 6232 6369 6466 6818 6819 7044 7118 7170 [...] (53 flits)
Class 0:
Remaining flits: 6045 6197 6232 6369 6466 6818 6819 7044 7118 7170 [...] (53 flits)
Measured flits: 6045 6197 6232 6369 6466 6818 6819 7044 7118 7170 [...] (53 flits)
Class 0:
Remaining flits: 6045 6197 6232 6369 6466 6818 6819 7044 7118 7170 [...] (53 flits)
Measured flits: 6045 6197 6232 6369 6466 6818 6819 7044 7118 7170 [...] (53 flits)
Class 0:
Remaining flits: 6045 6197 6232 6369 6466 6818 6819 7044 7118 7170 [...] (53 flits)
Measured flits: 6045 6197 6232 6369 6466 6818 6819 7044 7118 7170 [...] (53 flits)
Class 0:
Remaining flits: 6045 6197 6232 6369 6466 6818 6819 7044 7118 7170 [...] (53 flits)
Measured flits: 6045 6197 6232 6369 6466 6818 6819 7044 7118 7170 [...] (53 flits)
Class 0:
Remaining flits: 6045 6197 6232 6369 6466 6818 6819 7044 7118 7170 [...] (53 flits)
Measured flits: 6045 6197 6232 6369 6466 6818 6819 7044 7118 7170 [...] (53 flits)
Class 0:
Remaining flits: 6045 6197 6232 6369 6466 6818 6819 7044 7118 7170 [...] (53 flits)
Measured flits: 6045 6197 6232 6369 6466 6818 6819 7044 7118 7170 [...] (53 flits)
Class 0:
Remaining flits: 6045 6197 6232 6369 6466 6818 6819 7044 7118 7170 [...] (53 flits)
Measured flits: 6045 6197 6232 6369 6466 6818 6819 7044 7118 7170 [...] (53 flits)
Class 0:
Remaining flits: 6045 6197 6232 6369 6466 6818 6819 7044 7118 7170 [...] (53 flits)
Measured flits: 6045 6197 6232 6369 6466 6818 6819 7044 7118 7170 [...] (53 flits)
Class 0:
Remaining flits: 6045 6197 6232 6369 6466 6818 6819 7044 7118 7170 [...] (53 flits)
Measured flits: 6045 6197 6232 6369 6466 6818 6819 7044 7118 7170 [...] (53 flits)
Class 0:
Remaining flits: 6045 6197 6232 6369 6466 6818 6819 7044 7118 7170 [...] (53 flits)
Measured flits: 6045 6197 6232 6369 6466 6818 6819 7044 7118 7170 [...] (53 flits)
Class 0:
Remaining flits: 6045 6197 6232 6369 6466 6818 6819 7044 7118 7170 [...] (53 flits)
Measured flits: 6045 6197 6232 6369 6466 6818 6819 7044 7118 7170 [...] (53 flits)
Class 0:
Remaining flits: 6045 6197 6232 6369 6466 6818 6819 7044 7118 7170 [...] (53 flits)
Measured flits: 6045 6197 6232 6369 6466 6818 6819 7044 7118 7170 [...] (53 flits)
Class 0:
Remaining flits: 6045 6197 6232 6369 6466 6818 6819 7044 7118 7170 [...] (53 flits)
Measured flits: 6045 6197 6232 6369 6466 6818 6819 7044 7118 7170 [...] (53 flits)
Class 0:
Remaining flits: 6045 6197 6232 6369 6466 6818 6819 7044 7118 7170 [...] (53 flits)
Measured flits: 6045 6197 6232 6369 6466 6818 6819 7044 7118 7170 [...] (53 flits)
Class 0:
Remaining flits: 6045 6197 6232 6369 6466 6818 6819 7044 7118 7170 [...] (53 flits)
Measured flits: 6045 6197 6232 6369 6466 6818 6819 7044 7118 7170 [...] (53 flits)
Class 0:
Remaining flits: 6045 6197 6232 6369 6466 6818 6819 7044 7118 7170 [...] (53 flits)
Measured flits: 6045 6197 6232 6369 6466 6818 6819 7044 7118 7170 [...] (53 flits)
Class 0:
Remaining flits: 6045 6197 6232 6369 6466 6818 6819 7044 7118 7170 [...] (53 flits)
Measured flits: 6045 6197 6232 6369 6466 6818 6819 7044 7118 7170 [...] (53 flits)
Time taken is 1700 cycles
====== Traffic class 0 ======

Total number of flits generated = 8877, changed lanes = 8765
Overall minimum packet latency = 8 (1 samples)
Overall average packet latency = 262.498 (1 samples)
Overall maximum packet latency = 735 (1 samples)
Overall minimum network latency = 9 (1 samples)
Overall average network latency = 263.498 (1 samples)
Overall maximum network latency = 736 (1 samples)
Overall minimum flit latency = 9 (1 samples)
Overall average flit latency = 260.145 (1 samples)
Overall maximum flit latency = 736 (1 samples)
Overall minimum fragmentation = 0 (1 samples)
Overall average fragmentation = 0 (1 samples)
Overall maximum fragmentation = 0 (1 samples)
Overall minimum injected packet rate = 0.025 (1 samples)
Overall average injected packet rate = 0.0497949 (1 samples)
Overall maximum injected packet rate = 0.09 (1 samples)
Overall minimum accepted packet rate = 0.0125 (1 samples)
Overall average accepted packet rate = 0.039375 (1 samples)
Overall maximum accepted packet rate = 0.065 (1 samples)
Overall minimum injected flit rate = 0.025 (1 samples)
Overall average injected flit rate = 0.0497949 (1 samples)
Overall maximum injected flit rate = 0.09 (1 samples)
Overall minimum accepted flit rate = 0.0125 (1 samples)
Overall average accepted flit rate = 0.039375 (1 samples)
Overall maximum accepted flit rate = 0.065 (1 samples)
Overall average injected packet size = 1 (1 samples)
Overall average accepted packet size = 1 (1 samples)
Overall average hops = 11.7313 (1 samples)
Overall throughput of the network (flits/cycle) = 22.06
Overall throughput of the network (packets/cycle) = 22.06
Total run time 509.765
