make: Nothing to be done for 'all'.
Master: Running timer....
Master: Running SRC....
BEGIN Configuration File: ./examples/bitrev
// Topology

topology = mesh;
k = 2;
n = 2;

// Routing
routing_function = dor;

// Flow control
num_vcs     = 4;
vc_buf_size = 4;
wait_for_tail_credit = 0;

// Router architecture
vc_allocator = islip;
sw_allocator = islip;
alloc_iters  = 1;

credit_delay   = 1;
routing_delay  = 1;
vc_alloc_delay = 1;
sw_alloc_delay = 1;

input_speedup     = 1;
output_speedup    = 1;
internal_speedup  = 1.0;

vc_busy_when_full = 0;

// Traffic
traffic = uniform;
packet_size = 1;

// Simulation
sim_type = throughput;

injection_rate = 0.05;

END Configuration File: ./examples/bitrev
===== Time: 1000 =====
Class 0:
Minimum packet latency = 8
Average packet latency = 21.1856
Maximum packet latency = 38
Minimum network latency = 9
Average network latency = 22.1856
Maximum network latency = 39
Slowest packet = 66
Minimum flit latency = 9
Average flit latency = 22.1856
Maximum flit latency = 39
Slowest flit = 3
Minimum fragmentation = 0
Average fragmentation = 0
Maximum fragmentation = 0
Minimum injected packet rate = 0.038 (at node 2)
Average injected packet rate = 0.04325
Maximum injected packet rate = 0.048 (at node 1)
Minimum accepted packet rate = 0.032 (at node 1)
Average accepted packet rate = 0.04175
Maximum accepted packet rate = 0.05 (at node 2)
Minimum injected flit rate = 0.038 (at node 2)
Average injected flit rate = 0.04325
Maximum injected flit rate = 0.048 (at node 1)
Minimum accepted flit rate = 0.032 (at node 1)
Average accepted flit rate = 0.04175
Maximum accepted flit rate = 0.05 (at node 2)
Total number of injected packets = 173
Total number of injected flits = 173
Average injected packet length = 1
Total number of accepted packets = 167
Total number of accepted flits = 167
Average accepted packet length = 1
Total in-flight flits = 6 (0 measured)
===== Time: 2000 =====
Class 0:
Minimum packet latency = 8
Average packet latency = 21.6658
Maximum packet latency = 47
Minimum network latency = 9
Average network latency = 22.6658
Maximum network latency = 48
Slowest packet = 230
Minimum flit latency = 9
Average flit latency = 22.6658
Maximum flit latency = 48
Slowest flit = 230
Minimum fragmentation = 0
Average fragmentation = 0
Maximum fragmentation = 0
Minimum injected packet rate = 0.044 (at node 0)
Average injected packet rate = 0.049625
Maximum injected packet rate = 0.0555 (at node 1)
Minimum accepted packet rate = 0.0475 (at node 0)
Average accepted packet rate = 0.049375
Maximum accepted packet rate = 0.0505 (at node 2)
Minimum injected flit rate = 0.044 (at node 0)
Average injected flit rate = 0.049625
Maximum injected flit rate = 0.0555 (at node 1)
Minimum accepted flit rate = 0.0475 (at node 0)
Average accepted flit rate = 0.049375
Maximum accepted flit rate = 0.0505 (at node 2)
Total number of injected packets = 397
Total number of injected flits = 397
Average injected packet length = 1
Total number of accepted packets = 395
Total number of accepted flits = 395
Average accepted packet length = 1
Total in-flight flits = 2 (0 measured)
===== Time: 3000 =====
Class 0:
Minimum packet latency = 8
Average packet latency = 22.6592
Maximum packet latency = 40
Minimum network latency = 9
Average network latency = 23.6592
Maximum network latency = 41
Slowest packet = 500
Minimum flit latency = 9
Average flit latency = 23.6592
Maximum flit latency = 41
Slowest flit = 500
Minimum fragmentation = 0
Average fragmentation = 0
Maximum fragmentation = 0
Minimum injected packet rate = 0.04 (at node 2)
Average injected packet rate = 0.045
Maximum injected packet rate = 0.049 (at node 0)
Minimum accepted packet rate = 0.042 (at node 1)
Average accepted packet rate = 0.04475
Maximum accepted packet rate = 0.048 (at node 0)
Minimum injected flit rate = 0.04 (at node 2)
Average injected flit rate = 0.045
Maximum injected flit rate = 0.049 (at node 0)
Minimum accepted flit rate = 0.042 (at node 1)
Average accepted flit rate = 0.04475
Maximum accepted flit rate = 0.048 (at node 0)
Total number of injected packets = 180
Total number of injected flits = 180
Average injected packet length = 1
Total number of accepted packets = 179
Total number of accepted flits = 179
Average accepted packet length = 1
Total in-flight flits = 3 (0 measured)
===== Time: 4000 =====
Class 0:
Minimum packet latency = 8
Average packet latency = 22.4179
Maximum packet latency = 42
Minimum network latency = 9
Average network latency = 23.4179
Maximum network latency = 43
Slowest packet = 764
Minimum flit latency = 9
Average flit latency = 23.5245
Maximum flit latency = 43
Slowest flit = 663
Minimum fragmentation = 0
Average fragmentation = 0
Maximum fragmentation = 0
Minimum injected packet rate = 0.038 (at node 1)
Average injected packet rate = 0.05125
Maximum injected packet rate = 0.057 (at node 3)
Minimum accepted packet rate = 0.044 (at node 2)
Average accepted packet rate = 0.051
Maximum accepted packet rate = 0.056 (at node 0)
Minimum injected flit rate = 0.038 (at node 1)
Average injected flit rate = 0.05125
Maximum injected flit rate = 0.057 (at node 3)
Minimum accepted flit rate = 0.044 (at node 2)
Average accepted flit rate = 0.051
Maximum accepted flit rate = 0.056 (at node 0)
Total number of injected packets = 205
Total number of injected flits = 205
Average injected packet length = 1
Total number of accepted packets = 204
Total number of accepted flits = 204
Average accepted packet length = 1
Total in-flight flits = 4 (4 measured)
===== Time: 5000 =====
Class 0:
Minimum packet latency = 8
Average packet latency = 22.3368
Maximum packet latency = 42
Minimum network latency = 9
Average network latency = 23.3368
Maximum network latency = 43
Slowest packet = 920
Minimum flit latency = 9
Average flit latency = 23.3943
Maximum flit latency = 43
Slowest flit = 663
Minimum fragmentation = 0
Average fragmentation = 0
Maximum fragmentation = 0
Minimum injected packet rate = 0.0375 (at node 1)
Average injected packet rate = 0.047875
Maximum injected packet rate = 0.0535 (at node 2)
Minimum accepted packet rate = 0.042 (at node 2)
Average accepted packet rate = 0.047875
Maximum accepted packet rate = 0.0515 (at node 1)
Minimum injected flit rate = 0.0375 (at node 1)
Average injected flit rate = 0.047875
Maximum injected flit rate = 0.0535 (at node 2)
Minimum accepted flit rate = 0.042 (at node 2)
Average accepted flit rate = 0.047875
Maximum accepted flit rate = 0.0515 (at node 1)
Total number of injected packets = 383
Total number of injected flits = 383
Average injected packet length = 1
Total number of accepted packets = 383
Total number of accepted flits = 383
Average accepted packet length = 1
Total in-flight flits = 3 (3 measured)
===== Time: 6000 =====
Class 0:
Minimum packet latency = 8
Average packet latency = 21.8433
Maximum packet latency = 42
Minimum network latency = 9
Average network latency = 22.8433
Maximum network latency = 43
Slowest packet = 920
Minimum flit latency = 9
Average flit latency = 22.8823
Maximum flit latency = 43
Slowest flit = 663
Minimum fragmentation = 0
Average fragmentation = 0
Maximum fragmentation = 0
Minimum injected packet rate = 0.045 (at node 1)
Average injected packet rate = 0.0505833
Maximum injected packet rate = 0.0543333 (at node 0)
Minimum accepted packet rate = 0.0433333 (at node 2)
Average accepted packet rate = 0.05025
Maximum accepted packet rate = 0.0556667 (at node 1)
Minimum injected flit rate = 0.045 (at node 1)
Average injected flit rate = 0.0505833
Maximum injected flit rate = 0.0543333 (at node 0)
Minimum accepted flit rate = 0.0433333 (at node 2)
Average accepted flit rate = 0.05025
Maximum accepted flit rate = 0.0556667 (at node 1)
Total number of injected packets = 607
Total number of injected flits = 607
Average injected packet length = 1
Total number of accepted packets = 603
Total number of accepted flits = 603
Average accepted packet length = 1
Total in-flight flits = 7 (7 measured)
===== Time: 7000 =====
Class 0:
Minimum packet latency = 8
Average packet latency = 22.091
Maximum packet latency = 80
Minimum network latency = 9
Average network latency = 23.091
Maximum network latency = 81
Slowest packet = 1352
Minimum flit latency = 9
Average flit latency = 23.1193
Maximum flit latency = 81
Slowest flit = 1352
Minimum fragmentation = 0
Average fragmentation = 0
Maximum fragmentation = 0
Minimum injected packet rate = 0.04275 (at node 1)
Average injected packet rate = 0.05025
Maximum injected packet rate = 0.0555 (at node 0)
Minimum accepted packet rate = 0.04675 (at node 2)
Average accepted packet rate = 0.0503125
Maximum accepted packet rate = 0.053 (at node 1)
Minimum injected flit rate = 0.04275 (at node 1)
Average injected flit rate = 0.05025
Maximum injected flit rate = 0.0555 (at node 0)
Minimum accepted flit rate = 0.04675 (at node 2)
Average accepted flit rate = 0.0503125
Maximum accepted flit rate = 0.053 (at node 1)
Total number of injected packets = 804
Total number of injected flits = 804
Average injected packet length = 1
Total number of accepted packets = 805
Total number of accepted flits = 805
Average accepted packet length = 1
Total in-flight flits = 2 (2 measured)
===== Time: 8000 =====
Class 0:
Minimum packet latency = 8
Average packet latency = 22.0111
Maximum packet latency = 80
Minimum network latency = 9
Average network latency = 23.0111
Maximum network latency = 81
Slowest packet = 1352
Minimum flit latency = 9
Average flit latency = 23.0341
Maximum flit latency = 81
Slowest flit = 1352
Minimum fragmentation = 0
Average fragmentation = 0
Maximum fragmentation = 0
Minimum injected packet rate = 0.0462 (at node 1)
Average injected packet rate = 0.04975
Maximum injected packet rate = 0.0522 (at node 0)
Minimum accepted packet rate = 0.0478 (at node 2)
Average accepted packet rate = 0.0498
Maximum accepted packet rate = 0.0522 (at node 1)
Minimum injected flit rate = 0.0462 (at node 1)
Average injected flit rate = 0.04975
Maximum injected flit rate = 0.0522 (at node 0)
Minimum accepted flit rate = 0.0478 (at node 2)
Average accepted flit rate = 0.0498
Maximum accepted flit rate = 0.0522 (at node 1)
Total number of injected packets = 995
Total number of injected flits = 995
Average injected packet length = 1
Total number of accepted packets = 996
Total number of accepted flits = 996
Average accepted packet length = 1
Total in-flight flits = 2 (2 measured)
Draining remaining packets ...
Class 0:
Remaining flits: 1570 1571 (2 flits)
Measured flits: 1570 1571 (2 flits)
Class 0:
Remaining flits: 1570 1571 (2 flits)
Measured flits: 1570 1571 (2 flits)
Class 0:
Remaining flits: (0 flits)
Measured flits: (0 flits)
Class 0:
Remaining flits: (0 flits)
Measured flits: (0 flits)
Class 0:
Remaining flits: (0 flits)
Measured flits: (0 flits)
Class 0:
Remaining flits: (0 flits)
Measured flits: (0 flits)
Class 0:
Remaining flits: (0 flits)
Measured flits: (0 flits)
Class 0:
Remaining flits: (0 flits)
Measured flits: (0 flits)
Class 0:
Remaining flits: (0 flits)
Measured flits: (0 flits)
Class 0:
Remaining flits: (0 flits)
Measured flits: (0 flits)
Class 0:
Remaining flits: (0 flits)
Measured flits: (0 flits)
Class 0:
Remaining flits: (0 flits)
Measured flits: (0 flits)
Class 0:
Remaining flits: (0 flits)
Measured flits: (0 flits)
Class 0:
Remaining flits: (0 flits)
Measured flits: (0 flits)
Class 0:
Remaining flits: (0 flits)
Measured flits: (0 flits)
Class 0:
Remaining flits: (0 flits)
Measured flits: (0 flits)
Class 0:
Remaining flits: (0 flits)
Measured flits: (0 flits)
Class 0:
Remaining flits: (0 flits)
Measured flits: (0 flits)
Class 0:
Remaining flits: (0 flits)
Measured flits: (0 flits)
Class 0:
Remaining flits: (0 flits)
Measured flits: (0 flits)
Class 0:
Remaining flits: (0 flits)
Measured flits: (0 flits)
Class 0:
Remaining flits: (0 flits)
Measured flits: (0 flits)
Class 0:
Remaining flits: (0 flits)
Measured flits: (0 flits)
Class 0:
Remaining flits: (0 flits)
Measured flits: (0 flits)
Class 0:
Remaining flits: (0 flits)
Measured flits: (0 flits)
Class 0:
Remaining flits: (0 flits)
Measured flits: (0 flits)
Class 0:
Remaining flits: (0 flits)
Measured flits: (0 flits)
Class 0:
Remaining flits: (0 flits)
Measured flits: (0 flits)
Class 0:
Remaining flits: (0 flits)
Measured flits: (0 flits)
Class 0:
Remaining flits: (0 flits)
Measured flits: (0 flits)
Class 0:
Remaining flits: (0 flits)
Measured flits: (0 flits)
Class 0:
Remaining flits: (0 flits)
Measured flits: (0 flits)
Class 0:
Remaining flits: (0 flits)
Measured flits: (0 flits)
Class 0:
Remaining flits: (0 flits)
Measured flits: (0 flits)
Class 0:
Remaining flits: (0 flits)
Measured flits: (0 flits)
Class 0:
Remaining flits: (0 flits)
Measured flits: (0 flits)
Class 0:
Remaining flits: (0 flits)
Measured flits: (0 flits)
Class 0:
Remaining flits: (0 flits)
Measured flits: (0 flits)
Class 0:
Remaining flits: (0 flits)
Measured flits: (0 flits)
Class 0:
Remaining flits: (0 flits)
Measured flits: (0 flits)
Class 0:
Remaining flits: (0 flits)
Measured flits: (0 flits)
Class 0:
Remaining flits: (0 flits)
Measured flits: (0 flits)
Class 0:
Remaining flits: (0 flits)
Measured flits: (0 flits)
Class 0:
Remaining flits: (0 flits)
Measured flits: (0 flits)
Class 0:
Remaining flits: (0 flits)
Measured flits: (0 flits)
Class 0:
Remaining flits: (0 flits)
Measured flits: (0 flits)
Class 0:
Remaining flits: (0 flits)
Measured flits: (0 flits)
Class 0:
Remaining flits: (0 flits)
Measured flits: (0 flits)
Class 0:
Remaining flits: (0 flits)
Measured flits: (0 flits)
Class 0:
Remaining flits: (0 flits)
Measured flits: (0 flits)
Class 0:
Remaining flits: (0 flits)
Measured flits: (0 flits)
Class 0:
Remaining flits: (0 flits)
Measured flits: (0 flits)
Class 0:
Remaining flits: (0 flits)
Measured flits: (0 flits)
Class 0:
Remaining flits: (0 flits)
Measured flits: (0 flits)
Class 0:
Remaining flits: (0 flits)
Measured flits: (0 flits)
Class 0:
Remaining flits: (0 flits)
Measured flits: (0 flits)
Class 0:
Remaining flits: (0 flits)
Measured flits: (0 flits)
Class 0:
Remaining flits: (0 flits)
Measured flits: (0 flits)
Class 0:
Remaining flits: (0 flits)
Measured flits: (0 flits)
Class 0:
Remaining flits: (0 flits)
Measured flits: (0 flits)
Class 0:
Remaining flits: (0 flits)
Measured flits: (0 flits)
Class 0:
Remaining flits: (0 flits)
Measured flits: (0 flits)
Class 0:
Remaining flits: (0 flits)
Measured flits: (0 flits)
Class 0:
Remaining flits: (0 flits)
Measured flits: (0 flits)
Class 0:
Remaining flits: (0 flits)
Measured flits: (0 flits)
Class 0:
Remaining flits: (0 flits)
Measured flits: (0 flits)
Class 0:
Remaining flits: (0 flits)
Measured flits: (0 flits)
Class 0:
Remaining flits: (0 flits)
Measured flits: (0 flits)
Class 0:
Remaining flits: (0 flits)
Measured flits: (0 flits)
Class 0:
Remaining flits: (0 flits)
Measured flits: (0 flits)
Class 0:
Remaining flits: (0 flits)
Measured flits: (0 flits)
Class 0:
Remaining flits: (0 flits)
Measured flits: (0 flits)
Class 0:
Remaining flits: (0 flits)
Measured flits: (0 flits)
Class 0:
Remaining flits: (0 flits)
Measured flits: (0 flits)
Class 0:
Remaining flits: (0 flits)
Measured flits: (0 flits)
Class 0:
Remaining flits: (0 flits)
Measured flits: (0 flits)
Class 0:
Remaining flits: (0 flits)
Measured flits: (0 flits)
Class 0:
Remaining flits: (0 flits)
Measured flits: (0 flits)
Class 0:
Remaining flits: (0 flits)
Measured flits: (0 flits)
Class 0:
Remaining flits: (0 flits)
Measured flits: (0 flits)
Class 0:
Remaining flits: (0 flits)
Measured flits: (0 flits)
Class 0:
Remaining flits: (0 flits)
Measured flits: (0 flits)
Class 0:
Remaining flits: (0 flits)
Measured flits: (0 flits)
Class 0:
Remaining flits: (0 flits)
Measured flits: (0 flits)
Class 0:
Remaining flits: (0 flits)
Measured flits: (0 flits)
Class 0:
Remaining flits: (0 flits)
Measured flits: (0 flits)
Class 0:
Remaining flits: (0 flits)
Measured flits: (0 flits)
Class 0:
Remaining flits: (0 flits)
Measured flits: (0 flits)
Class 0:
Remaining flits: (0 flits)
Measured flits: (0 flits)
Class 0:
Remaining flits: (0 flits)
Measured flits: (0 flits)
Class 0:
Remaining flits: (0 flits)
Measured flits: (0 flits)
Class 0:
Remaining flits: (0 flits)
Measured flits: (0 flits)
Class 0:
Remaining flits: (0 flits)
Measured flits: (0 flits)
Class 0:
Remaining flits: (0 flits)
Measured flits: (0 flits)
Class 0:
Remaining flits: (0 flits)
Measured flits: (0 flits)
Class 0:
Remaining flits: (0 flits)
Measured flits: (0 flits)
Class 0:
Remaining flits: (0 flits)
Measured flits: (0 flits)
Class 0:
Remaining flits: (0 flits)
Measured flits: (0 flits)
Class 0:
Remaining flits: (0 flits)
Measured flits: (0 flits)
Class 0:
Remaining flits: (0 flits)
Measured flits: (0 flits)
Class 0:
Remaining flits: (0 flits)
Measured flits: (0 flits)
Time taken is 9000 cycles
====== Traffic class 0 ======

Total number of flits generated = 1572, changed lanes = 1401
Overall minimum packet latency = 8 (1 samples)
Overall average packet latency = 22.0362 (1 samples)
Overall maximum packet latency = 80 (1 samples)
Overall minimum network latency = 9 (1 samples)
Overall average network latency = 23.0362 (1 samples)
Overall maximum network latency = 81 (1 samples)
Overall minimum flit latency = 9 (1 samples)
Overall average flit latency = 23.0591 (1 samples)
Overall maximum flit latency = 81 (1 samples)
Overall minimum fragmentation = 0 (1 samples)
Overall average fragmentation = 0 (1 samples)
Overall maximum fragmentation = 0 (1 samples)
Overall minimum injected packet rate = 0.0462 (1 samples)
Overall average injected packet rate = 0.04975 (1 samples)
Overall maximum injected packet rate = 0.0522 (1 samples)
Overall minimum accepted packet rate = 0.0478 (1 samples)
Overall average accepted packet rate = 0.0498 (1 samples)
Overall maximum accepted packet rate = 0.0522 (1 samples)
Overall minimum injected flit rate = 0.0462 (1 samples)
Overall average injected flit rate = 0.04975 (1 samples)
Overall maximum injected flit rate = 0.0522 (1 samples)
Overall minimum accepted flit rate = 0.0478 (1 samples)
Overall average accepted flit rate = 0.0498 (1 samples)
Overall maximum accepted flit rate = 0.0522 (1 samples)
Overall average injected packet size = 1 (1 samples)
Overall average accepted packet size = 1 (1 samples)
Overall average hops = 1.96382 (1 samples)
Overall throughput of the network (flits/cycle) = 0.3144
Overall throughput of the network (packets/cycle) = 0.3144
Total run time 2.50338
