make: Nothing to be done for 'all'.
Master: Running timer....
Master: Running SRC....
BEGIN Configuration File: ./examples/bitrev
// Topology

topology = mesh;
k = 4;
n = 2;

// Routing
routing_function = dor;

// Flow control
num_vcs     = 2;
vc_buf_size = 16;
wait_for_tail_credit = 0;

// Router architecture
vc_allocator = islip;
sw_allocator = islip;
alloc_iters  = 1;

credit_delay   = 1;
routing_delay  = 1;
vc_alloc_delay = 1;
sw_alloc_delay = 1;

input_speedup     = 1;
output_speedup    = 1;
internal_speedup  = 1.0;

vc_busy_when_full = 0;

// Traffic
traffic = uniform;
packet_size = 1;

// Simulation
sim_type = throughput;

injection_rate = 0.05;

END Configuration File: ./examples/bitrev
===== Time: 10000 =====
Class 0:
Minimum packet latency = 8
Average packet latency = 41.4241
Maximum packet latency = 271
Minimum network latency = 9
Average network latency = 42.4241
Maximum network latency = 272
Slowest packet = 6892
Minimum flit latency = 9
Average flit latency = 42.4241
Maximum flit latency = 272
Slowest flit = 6892
Minimum fragmentation = 0
Average fragmentation = 0
Maximum fragmentation = 0
Minimum injected packet rate = 0.0458 (at node 0)
Average injected packet rate = 0.0494687
Maximum injected packet rate = 0.0515 (at node 12)
Minimum accepted packet rate = 0.0451 (at node 4)
Average accepted packet rate = 0.0492937
Maximum accepted packet rate = 0.0533 (at node 8)
Minimum injected flit rate = 0.0458 (at node 0)
Average injected flit rate = 0.0494687
Maximum injected flit rate = 0.0515 (at node 12)
Minimum accepted flit rate = 0.0451 (at node 4)
Average accepted flit rate = 0.0492937
Maximum accepted flit rate = 0.0533 (at node 8)
Total number of injected packets = 7915
Total number of injected flits = 7915
Average injected packet length = 1
Total number of accepted packets = 7887
Total number of accepted flits = 7887
Average accepted packet length = 1
Total in-flight flits = 28 (0 measured)
===== Time: 20000 =====
Class 0:
Minimum packet latency = 8
Average packet latency = 41.6942
Maximum packet latency = 271
Minimum network latency = 9
Average network latency = 42.6942
Maximum network latency = 272
Slowest packet = 6892
Minimum flit latency = 9
Average flit latency = 42.6942
Maximum flit latency = 272
Slowest flit = 6892
Minimum fragmentation = 0
Average fragmentation = 0
Maximum fragmentation = 0
Minimum injected packet rate = 0.0483 (at node 8)
Average injected packet rate = 0.0500375
Maximum injected packet rate = 0.0526 (at node 12)
Minimum accepted packet rate = 0.0456 (at node 4)
Average accepted packet rate = 0.0499344
Maximum accepted packet rate = 0.0534 (at node 8)
Minimum injected flit rate = 0.0483 (at node 8)
Average injected flit rate = 0.0500375
Maximum injected flit rate = 0.0526 (at node 12)
Minimum accepted flit rate = 0.0456 (at node 4)
Average accepted flit rate = 0.0499344
Maximum accepted flit rate = 0.0534 (at node 8)
Total number of injected packets = 16012
Total number of injected flits = 16012
Average injected packet length = 1
Total number of accepted packets = 15979
Total number of accepted flits = 15979
Average accepted packet length = 1
Total in-flight flits = 33 (0 measured)
===== Time: 30000 =====
Class 0:
Minimum packet latency = 7
Average packet latency = 41.7001
Maximum packet latency = 178
Minimum network latency = 8
Average network latency = 42.7001
Maximum network latency = 179
Slowest packet = 19210
Minimum flit latency = 8
Average flit latency = 42.7001
Maximum flit latency = 179
Slowest flit = 19210
Minimum fragmentation = 0
Average fragmentation = 0
Maximum fragmentation = 0
Minimum injected packet rate = 0.045 (at node 15)
Average injected packet rate = 0.0495875
Maximum injected packet rate = 0.0541 (at node 13)
Minimum accepted packet rate = 0.045 (at node 4)
Average accepted packet rate = 0.0496188
Maximum accepted packet rate = 0.0523 (at node 5)
Minimum injected flit rate = 0.045 (at node 15)
Average injected flit rate = 0.0495875
Maximum injected flit rate = 0.0541 (at node 13)
Minimum accepted flit rate = 0.045 (at node 4)
Average accepted flit rate = 0.0496188
Maximum accepted flit rate = 0.0523 (at node 5)
Total number of injected packets = 7934
Total number of injected flits = 7934
Average injected packet length = 1
Total number of accepted packets = 7939
Total number of accepted flits = 7939
Average accepted packet length = 1
Total in-flight flits = 28 (0 measured)
===== Time: 40000 =====
Class 0:
Minimum packet latency = 8
Average packet latency = 41.8352
Maximum packet latency = 170
Minimum network latency = 9
Average network latency = 42.8352
Maximum network latency = 171
Slowest packet = 28929
Minimum flit latency = 9
Average flit latency = 42.8507
Maximum flit latency = 171
Slowest flit = 28929
Minimum fragmentation = 0
Average fragmentation = 0
Maximum fragmentation = 0
Minimum injected packet rate = 0.0473 (at node 6)
Average injected packet rate = 0.0501938
Maximum injected packet rate = 0.0543 (at node 14)
Minimum accepted packet rate = 0.0455 (at node 4)
Average accepted packet rate = 0.0501562
Maximum accepted packet rate = 0.0545 (at node 10)
Minimum injected flit rate = 0.0473 (at node 6)
Average injected flit rate = 0.0501938
Maximum injected flit rate = 0.0543 (at node 14)
Minimum accepted flit rate = 0.0455 (at node 4)
Average accepted flit rate = 0.0501562
Maximum accepted flit rate = 0.0545 (at node 10)
Total number of injected packets = 8031
Total number of injected flits = 8031
Average injected packet length = 1
Total number of accepted packets = 8025
Total number of accepted flits = 8025
Average accepted packet length = 1
Total in-flight flits = 34 (34 measured)
===== Time: 50000 =====
Class 0:
Minimum packet latency = 8
Average packet latency = 41.5958
Maximum packet latency = 215
Minimum network latency = 9
Average network latency = 42.5958
Maximum network latency = 216
Slowest packet = 37011
Minimum flit latency = 9
Average flit latency = 42.604
Maximum flit latency = 216
Slowest flit = 37011
Minimum fragmentation = 0
Average fragmentation = 0
Maximum fragmentation = 0
Minimum injected packet rate = 0.04815 (at node 10)
Average injected packet rate = 0.0503
Maximum injected packet rate = 0.05345 (at node 14)
Minimum accepted packet rate = 0.04815 (at node 4)
Average accepted packet rate = 0.0502906
Maximum accepted packet rate = 0.0529 (at node 7)
Minimum injected flit rate = 0.04815 (at node 10)
Average injected flit rate = 0.0503
Maximum injected flit rate = 0.05345 (at node 14)
Minimum accepted flit rate = 0.04815 (at node 4)
Average accepted flit rate = 0.0502906
Maximum accepted flit rate = 0.0529 (at node 7)
Total number of injected packets = 16096
Total number of injected flits = 16096
Average injected packet length = 1
Total number of accepted packets = 16093
Total number of accepted flits = 16093
Average accepted packet length = 1
Total in-flight flits = 31 (31 measured)
===== Time: 60000 =====
Class 0:
Minimum packet latency = 8
Average packet latency = 41.6458
Maximum packet latency = 215
Minimum network latency = 9
Average network latency = 42.6458
Maximum network latency = 216
Slowest packet = 37011
Minimum flit latency = 9
Average flit latency = 42.6512
Maximum flit latency = 216
Slowest flit = 37011
Minimum fragmentation = 0
Average fragmentation = 0
Maximum fragmentation = 0
Minimum injected packet rate = 0.0482 (at node 10)
Average injected packet rate = 0.0501896
Maximum injected packet rate = 0.0528667 (at node 14)
Minimum accepted packet rate = 0.0484333 (at node 0)
Average accepted packet rate = 0.0501604
Maximum accepted packet rate = 0.0532333 (at node 7)
Minimum injected flit rate = 0.0482 (at node 10)
Average injected flit rate = 0.0501896
Maximum injected flit rate = 0.0528667 (at node 14)
Minimum accepted flit rate = 0.0484333 (at node 0)
Average accepted flit rate = 0.0501604
Maximum accepted flit rate = 0.0532333 (at node 7)
Total number of injected packets = 24091
Total number of injected flits = 24091
Average injected packet length = 1
Total number of accepted packets = 24077
Total number of accepted flits = 24077
Average accepted packet length = 1
Total in-flight flits = 42 (42 measured)
Draining remaining packets ...
Class 0:
Remaining flits: 47990 47991 47992 47993 47996 48002 48003 48004 48005 48006 [...] (34 flits)
Measured flits: 47990 47991 47992 47993 47996 48002 48003 48004 48005 48006 [...] (34 flits)
Class 0:
Remaining flits: 47991 47996 48003 48004 48005 48006 48010 48012 48014 48015 [...] (27 flits)
Measured flits: 47991 47996 48003 48004 48005 48006 48010 48012 48014 48015 [...] (27 flits)
Class 0:
Remaining flits: 47996 48005 48017 48019 48020 48023 48024 48025 48028 48029 [...] (16 flits)
Measured flits: 47996 48005 48017 48019 48020 48023 48024 48025 48028 48029 [...] (16 flits)
Class 0:
Remaining flits: 47996 48005 48017 48019 48020 48023 48025 48029 48031 48032 [...] (13 flits)
Measured flits: 47996 48005 48017 48019 48020 48023 48025 48029 48031 48032 [...] (13 flits)
Class 0:
Remaining flits: 48017 48023 48031 48033 48034 (5 flits)
Measured flits: 48017 48023 48031 48033 48034 (5 flits)
Class 0:
Remaining flits: 48023 (1 flits)
Measured flits: 48023 (1 flits)
Class 0:
Remaining flits: (0 flits)
Measured flits: (0 flits)
Class 0:
Remaining flits: (0 flits)
Measured flits: (0 flits)
Class 0:
Remaining flits: (0 flits)
Measured flits: (0 flits)
Class 0:
Remaining flits: (0 flits)
Measured flits: (0 flits)
Class 0:
Remaining flits: (0 flits)
Measured flits: (0 flits)
Class 0:
Remaining flits: (0 flits)
Measured flits: (0 flits)
Class 0:
Remaining flits: (0 flits)
Measured flits: (0 flits)
Class 0:
Remaining flits: (0 flits)
Measured flits: (0 flits)
Class 0:
Remaining flits: (0 flits)
Measured flits: (0 flits)
Class 0:
Remaining flits: (0 flits)
Measured flits: (0 flits)
Class 0:
Remaining flits: (0 flits)
Measured flits: (0 flits)
Class 0:
Remaining flits: (0 flits)
Measured flits: (0 flits)
Class 0:
Remaining flits: (0 flits)
Measured flits: (0 flits)
Class 0:
Remaining flits: (0 flits)
Measured flits: (0 flits)
Class 0:
Remaining flits: (0 flits)
Measured flits: (0 flits)
Class 0:
Remaining flits: (0 flits)
Measured flits: (0 flits)
Class 0:
Remaining flits: (0 flits)
Measured flits: (0 flits)
Class 0:
Remaining flits: (0 flits)
Measured flits: (0 flits)
Class 0:
Remaining flits: (0 flits)
Measured flits: (0 flits)
Class 0:
Remaining flits: (0 flits)
Measured flits: (0 flits)
Class 0:
Remaining flits: (0 flits)
Measured flits: (0 flits)
Class 0:
Remaining flits: (0 flits)
Measured flits: (0 flits)
Class 0:
Remaining flits: (0 flits)
Measured flits: (0 flits)
Class 0:
Remaining flits: (0 flits)
Measured flits: (0 flits)
Class 0:
Remaining flits: (0 flits)
Measured flits: (0 flits)
Class 0:
Remaining flits: (0 flits)
Measured flits: (0 flits)
Class 0:
Remaining flits: (0 flits)
Measured flits: (0 flits)
Class 0:
Remaining flits: (0 flits)
Measured flits: (0 flits)
Class 0:
Remaining flits: (0 flits)
Measured flits: (0 flits)
Class 0:
Remaining flits: (0 flits)
Measured flits: (0 flits)
Class 0:
Remaining flits: (0 flits)
Measured flits: (0 flits)
Class 0:
Remaining flits: (0 flits)
Measured flits: (0 flits)
Class 0:
Remaining flits: (0 flits)
Measured flits: (0 flits)
Class 0:
Remaining flits: (0 flits)
Measured flits: (0 flits)
Class 0:
Remaining flits: (0 flits)
Measured flits: (0 flits)
Class 0:
Remaining flits: (0 flits)
Measured flits: (0 flits)
Class 0:
Remaining flits: (0 flits)
Measured flits: (0 flits)
Class 0:
Remaining flits: (0 flits)
Measured flits: (0 flits)
Class 0:
Remaining flits: (0 flits)
Measured flits: (0 flits)
Class 0:
Remaining flits: (0 flits)
Measured flits: (0 flits)
Class 0:
Remaining flits: (0 flits)
Measured flits: (0 flits)
Class 0:
Remaining flits: (0 flits)
Measured flits: (0 flits)
Class 0:
Remaining flits: (0 flits)
Measured flits: (0 flits)
Class 0:
Remaining flits: (0 flits)
Measured flits: (0 flits)
Class 0:
Remaining flits: (0 flits)
Measured flits: (0 flits)
Class 0:
Remaining flits: (0 flits)
Measured flits: (0 flits)
Class 0:
Remaining flits: (0 flits)
Measured flits: (0 flits)
Class 0:
Remaining flits: (0 flits)
Measured flits: (0 flits)
Class 0:
Remaining flits: (0 flits)
Measured flits: (0 flits)
Class 0:
Remaining flits: (0 flits)
Measured flits: (0 flits)
Class 0:
Remaining flits: (0 flits)
Measured flits: (0 flits)
Class 0:
Remaining flits: (0 flits)
Measured flits: (0 flits)
Class 0:
Remaining flits: (0 flits)
Measured flits: (0 flits)
Class 0:
Remaining flits: (0 flits)
Measured flits: (0 flits)
Class 0:
Remaining flits: (0 flits)
Measured flits: (0 flits)
Class 0:
Remaining flits: (0 flits)
Measured flits: (0 flits)
Class 0:
Remaining flits: (0 flits)
Measured flits: (0 flits)
Class 0:
Remaining flits: (0 flits)
Measured flits: (0 flits)
Class 0:
Remaining flits: (0 flits)
Measured flits: (0 flits)
Class 0:
Remaining flits: (0 flits)
Measured flits: (0 flits)
Class 0:
Remaining flits: (0 flits)
Measured flits: (0 flits)
Class 0:
Remaining flits: (0 flits)
Measured flits: (0 flits)
Class 0:
Remaining flits: (0 flits)
Measured flits: (0 flits)
Class 0:
Remaining flits: (0 flits)
Measured flits: (0 flits)
Class 0:
Remaining flits: (0 flits)
Measured flits: (0 flits)
Class 0:
Remaining flits: (0 flits)
Measured flits: (0 flits)
Class 0:
Remaining flits: (0 flits)
Measured flits: (0 flits)
Class 0:
Remaining flits: (0 flits)
Measured flits: (0 flits)
Class 0:
Remaining flits: (0 flits)
Measured flits: (0 flits)
Class 0:
Remaining flits: (0 flits)
Measured flits: (0 flits)
Class 0:
Remaining flits: (0 flits)
Measured flits: (0 flits)
Class 0:
Remaining flits: (0 flits)
Measured flits: (0 flits)
Class 0:
Remaining flits: (0 flits)
Measured flits: (0 flits)
Class 0:
Remaining flits: (0 flits)
Measured flits: (0 flits)
Class 0:
Remaining flits: (0 flits)
Measured flits: (0 flits)
Class 0:
Remaining flits: (0 flits)
Measured flits: (0 flits)
Class 0:
Remaining flits: (0 flits)
Measured flits: (0 flits)
Class 0:
Remaining flits: (0 flits)
Measured flits: (0 flits)
Class 0:
Remaining flits: (0 flits)
Measured flits: (0 flits)
Class 0:
Remaining flits: (0 flits)
Measured flits: (0 flits)
Class 0:
Remaining flits: (0 flits)
Measured flits: (0 flits)
Class 0:
Remaining flits: (0 flits)
Measured flits: (0 flits)
Class 0:
Remaining flits: (0 flits)
Measured flits: (0 flits)
Class 0:
Remaining flits: (0 flits)
Measured flits: (0 flits)
Class 0:
Remaining flits: (0 flits)
Measured flits: (0 flits)
Class 0:
Remaining flits: (0 flits)
Measured flits: (0 flits)
Class 0:
Remaining flits: (0 flits)
Measured flits: (0 flits)
Class 0:
Remaining flits: (0 flits)
Measured flits: (0 flits)
Class 0:
Remaining flits: (0 flits)
Measured flits: (0 flits)
Class 0:
Remaining flits: (0 flits)
Measured flits: (0 flits)
Class 0:
Remaining flits: (0 flits)
Measured flits: (0 flits)
Class 0:
Remaining flits: (0 flits)
Measured flits: (0 flits)
Class 0:
Remaining flits: (0 flits)
Measured flits: (0 flits)
Class 0:
Remaining flits: (0 flits)
Measured flits: (0 flits)
Class 0:
Remaining flits: (0 flits)
Measured flits: (0 flits)
Time taken is 61000 cycles
====== Traffic class 0 ======

Total number of flits generated = 48037, changed lanes = 40773
Overall minimum packet latency = 8 (1 samples)
Overall average packet latency = 41.665 (1 samples)
Overall maximum packet latency = 215 (1 samples)
Overall minimum network latency = 9 (1 samples)
Overall average network latency = 42.665 (1 samples)
Overall maximum network latency = 216 (1 samples)
Overall minimum flit latency = 9 (1 samples)
Overall average flit latency = 42.6704 (1 samples)
Overall maximum flit latency = 216 (1 samples)
Overall minimum fragmentation = 0 (1 samples)
Overall average fragmentation = 0 (1 samples)
Overall maximum fragmentation = 0 (1 samples)
Overall minimum injected packet rate = 0.0482 (1 samples)
Overall average injected packet rate = 0.0501896 (1 samples)
Overall maximum injected packet rate = 0.0528667 (1 samples)
Overall minimum accepted packet rate = 0.0484333 (1 samples)
Overall average accepted packet rate = 0.0501604 (1 samples)
Overall maximum accepted packet rate = 0.0532333 (1 samples)
Overall minimum injected flit rate = 0.0482 (1 samples)
Overall average injected flit rate = 0.0501896 (1 samples)
Overall maximum injected flit rate = 0.0528667 (1 samples)
Overall minimum accepted flit rate = 0.0484333 (1 samples)
Overall average accepted flit rate = 0.0501604 (1 samples)
Overall maximum accepted flit rate = 0.0532333 (1 samples)
Overall average injected packet size = 1 (1 samples)
Overall average accepted packet size = 1 (1 samples)
Overall average hops = 3.49213 (1 samples)
Overall throughput of the network (flits/cycle) = 1.60123
Overall throughput of the network (packets/cycle) = 1.60123
Total run time 75.2882
