make: Nothing to be done for 'all'.
Master: Running timer....
Master: Running SRC....
BEGIN Configuration File: ./examples/mesh88_lat_blackscholes
// $Id$

topology = mesh;
k = 8;
n = 2;

// Routing
routing_function = dor;

// Flow control
num_vcs     = 1;
vc_buf_size = 4;
wait_for_tail_credit = 1;

// Router architecture
vc_allocator = islip;
sw_allocator = islip;
alloc_iters  = 1;

credit_delay   = 1;
routing_delay  = 1;
vc_alloc_delay = 1;
sw_alloc_delay = 1;

input_speedup     = 1;
output_speedup    = 1;
internal_speedup  = 1.0;

vc_busy_when_full = 0;

// Traffic
workload=netrace({/home/sarab/Downloads/BookSim_Benchmark_files/fluidanimate_64c_simsmall.tra.bz2,100000000,1,2,1,1,0);

// Simulation
sim_type = workload;

END Configuration File: ./examples/mesh88_lat_blackscholes
Warming up...
===== Time: 10000 =====
Class 0:
Packets read from trace = 160 of 20989170 (0%)
Future packets = 1
Waiting packets = 0
Stalled packets = 135
Packets pending injection = 8
Packets in flight = 10
Minimum packet latency = 94
Average packet latency = 609.5
Maximum packet latency = 1492
Minimum network latency = 94
Average network latency = 608.833
Maximum network latency = 1488
Slowest packet = 6
Minimum flit latency = 46
Average flit latency = 280.615
Maximum flit latency = 1479
Slowest flit = 22
Minimum fragmentation = 0
Average fragmentation = 502.667
Maximum fragmentation = 1342
Minimum injected packet rate = 0 (at node 0)
Average injected packet rate = 2.34375e-05
Maximum injected packet rate = 0.0004 (at node 6)
Minimum accepted packet rate = 0 (at node 0)
Average accepted packet rate = 9.375e-06
Maximum accepted packet rate = 0.0003 (at node 58)
Minimum injected flit rate = 0 (at node 0)
Average injected flit rate = 9.375e-05
Maximum injected flit rate = 0.0019 (at node 6)
Minimum accepted flit rate = 0 (at node 0)
Average accepted flit rate = 4.0625e-05
Maximum accepted flit rate = 0.0011 (at node 58)
Total number of injected packets = 15
Total number of injected flits = 60
Average injected packet length = 4
Total number of accepted packets = 6
Total number of accepted flits = 26
Average accepted packet length = 4.33333
Total in-flight flits = 42 (0 measured)
===== Time: 20000 =====
Class 0:
Packets read from trace = 313 of 20989170 (0%)
Future packets = 1
Waiting packets = 0
Stalled packets = 272
Packets pending injection = 19
Packets in flight = 14
Minimum packet latency = 94
Average packet latency = 2493
Maximum packet latency = 13794
Minimum network latency = 94
Average network latency = 2492.43
Maximum network latency = 13794
Slowest packet = 3
Minimum flit latency = 46
Average flit latency = 950.143
Maximum flit latency = 13786
Slowest flit = 7
Minimum fragmentation = 0
Average fragmentation = 2385.71
Maximum fragmentation = 13684
Minimum injected packet rate = 0 (at node 0)
Average injected packet rate = 1.5625e-05
Maximum injected packet rate = 0.0002 (at node 6)
Minimum accepted packet rate = 0 (at node 0)
Average accepted packet rate = 5.46875e-06
Maximum accepted packet rate = 0.00015 (at node 58)
Minimum injected flit rate = 0 (at node 0)
Average injected flit rate = 6.5625e-05
Maximum injected flit rate = 0.00095 (at node 6)
Minimum accepted flit rate = 0 (at node 0)
Average accepted flit rate = 2.73438e-05
Maximum accepted flit rate = 0.00075 (at node 58)
Total number of injected packets = 20
Total number of injected flits = 84
Average injected packet length = 4.2
Total number of accepted packets = 7
Total number of accepted flits = 35
Average accepted packet length = 5
Total in-flight flits = 58 (0 measured)
===== Time: 30000 =====
Class 0:
Packets read from trace = 463 of 20989170 (0%)
Future packets = 1
Waiting packets = 0
Stalled packets = 406
Packets pending injection = 33
Packets in flight = 16
Minimum packet latency = 94
Average packet latency = 2493
Maximum packet latency = 13794
Minimum network latency = 94
Average network latency = 2492.43
Maximum network latency = 13794
Slowest packet = 3
Minimum flit latency = 46
Average flit latency = 950.143
Maximum flit latency = 13786
Slowest flit = 7
Minimum fragmentation = 0
Average fragmentation = 2385.71
Maximum fragmentation = 13684
Minimum injected packet rate = 0 (at node 0)
Average injected packet rate = 1.14583e-05
Maximum injected packet rate = 0.000133333 (at node 6)
Minimum accepted packet rate = 0 (at node 0)
Average accepted packet rate = 3.64583e-06
Maximum accepted packet rate = 0.0001 (at node 58)
Minimum injected flit rate = 0 (at node 0)
Average injected flit rate = 4.84375e-05
Maximum injected flit rate = 0.000633333 (at node 6)
Minimum accepted flit rate = 0 (at node 0)
Average accepted flit rate = 1.82292e-05
Maximum accepted flit rate = 0.0005 (at node 58)
Total number of injected packets = 22
Total number of injected flits = 93
Average injected packet length = 4.22727
Total number of accepted packets = 7
Total number of accepted flits = 35
Average accepted packet length = 5
Total in-flight flits = 68 (0 measured)
Warmup ends after 30000 cycles.
Beginning measurements...
===== Time: 40000 =====
Class 0:
Packets read from trace = 611 of 20989170 (0%)
Future packets = 1
Waiting packets = 0
Stalled packets = 540
Packets pending injection = 37
Packets in flight = 23
Minimum packet latency = 779
Average packet latency = 2185.33
Maximum packet latency = 3607
Minimum network latency = 779
Average network latency = 2185.33
Maximum network latency = 3607
Slowest packet = 27
Minimum flit latency = 84
Average flit latency = 1317.26
Maximum flit latency = 4344
Slowest flit = 119
Minimum fragmentation = 681
Average fragmentation = 2090.33
Maximum fragmentation = 3508
Minimum injected packet rate = 0 (at node 0)
Average injected packet rate = 1.40625e-05
Maximum injected packet rate = 0.0003 (at node 3)
Minimum accepted packet rate = 0 (at node 0)
Average accepted packet rate = 4.6875e-06
Maximum accepted packet rate = 0.0002 (at node 47)
Minimum injected flit rate = 0 (at node 0)
Average injected flit rate = 6.875e-05
Maximum injected flit rate = 0.0015 (at node 3)
Minimum accepted flit rate = 0 (at node 0)
Average accepted flit rate = 2.96875e-05
Maximum accepted flit rate = 0.001 (at node 47)
Total number of injected packets = 9
Total number of injected flits = 44
Average injected packet length = 4.88889
Total number of accepted packets = 3
Total number of accepted flits = 19
Average accepted packet length = 6.33333
Total in-flight flits = 99 (31 measured)
===== Time: 50000 =====
Class 0:
Packets read from trace = 754 of 20989170 (0%)
Future packets = 1
Waiting packets = 1
Stalled packets = 671
Packets pending injection = 43
Packets in flight = 27
Minimum packet latency = 779
Average packet latency = 1946.5
Maximum packet latency = 3607
Minimum network latency = 779
Average network latency = 1946.5
Maximum network latency = 3607
Slowest packet = 27
Minimum flit latency = 84
Average flit latency = 1110.25
Maximum flit latency = 4344
Slowest flit = 119
Minimum fragmentation = 681
Average fragmentation = 1850.25
Maximum fragmentation = 3508
Minimum injected packet rate = 0 (at node 0)
Average injected packet rate = 1.09375e-05
Maximum injected packet rate = 0.0002 (at node 3)
Minimum accepted packet rate = 0 (at node 0)
Average accepted packet rate = 3.125e-06
Maximum accepted packet rate = 0.0001 (at node 47)
Minimum injected flit rate = 0 (at node 0)
Average injected flit rate = 5.3125e-05
Maximum injected flit rate = 0.00095 (at node 3)
Minimum accepted flit rate = 0 (at node 0)
Average accepted flit rate = 1.875e-05
Maximum accepted flit rate = 0.0005 (at node 47)
Total number of injected packets = 14
Total number of injected flits = 68
Average injected packet length = 4.85714
Total number of accepted packets = 4
Total number of accepted flits = 24
Average accepted packet length = 6
Total in-flight flits = 119 (51 measured)
===== Time: 60000 =====
Class 0:
Packets read from trace = 891 of 20989170 (0%)
Future packets = 1
Waiting packets = 0
Stalled packets = 796
Packets pending injection = 49
Packets in flight = 30
Minimum packet latency = 779
Average packet latency = 6507.5
Maximum packet latency = 21494
Minimum network latency = 779
Average network latency = 6507.12
Maximum network latency = 21494
Slowest packet = 26
Minimum flit latency = 84
Average flit latency = 4948.38
Maximum flit latency = 21486
Slowest flit = 122
Minimum fragmentation = 6
Average fragmentation = 3331.12
Maximum fragmentation = 17150
Minimum injected packet rate = 0 (at node 0)
Average injected packet rate = 1.09375e-05
Maximum injected packet rate = 0.000133333 (at node 3)
Minimum accepted packet rate = 0 (at node 0)
Average accepted packet rate = 4.16667e-06
Maximum accepted packet rate = 0.000133333 (at node 23)
Minimum injected flit rate = 0 (at node 0)
Average injected flit rate = 5.26042e-05
Maximum injected flit rate = 0.000633333 (at node 3)
Minimum accepted flit rate = 0 (at node 0)
Average accepted flit rate = 2.5e-05
Maximum accepted flit rate = 0.000666667 (at node 23)
Total number of injected packets = 21
Total number of injected flits = 101
Average injected packet length = 4.80952
Total number of accepted packets = 8
Total number of accepted flits = 48
Average accepted packet length = 6
Total in-flight flits = 130 (62 measured)
===== Time: 70000 =====
Class 0:
Packets read from trace = 1020 of 20989170 (0%)
Future packets = 1
Waiting packets = 0
Stalled packets = 920
Packets pending injection = 52
Packets in flight = 32
Minimum packet latency = 779
Average packet latency = 6507.5
Maximum packet latency = 21494
Minimum network latency = 779
Average network latency = 6507.12
Maximum network latency = 21494
Slowest packet = 26
Minimum flit latency = 84
Average flit latency = 4948.38
Maximum flit latency = 21486
Slowest flit = 122
Minimum fragmentation = 6
Average fragmentation = 3331.12
Maximum fragmentation = 17150
Minimum injected packet rate = 0 (at node 0)
Average injected packet rate = 8.98437e-06
Maximum injected packet rate = 0.0001 (at node 3)
Minimum accepted packet rate = 0 (at node 0)
Average accepted packet rate = 3.125e-06
Maximum accepted packet rate = 0.0001 (at node 23)
Minimum injected flit rate = 0 (at node 0)
Average injected flit rate = 4.33594e-05
Maximum injected flit rate = 0.000475 (at node 3)
Minimum accepted flit rate = 0 (at node 0)
Average accepted flit rate = 1.875e-05
Maximum accepted flit rate = 0.0005 (at node 23)
Total number of injected packets = 23
Total number of injected flits = 111
Average injected packet length = 4.82609
Total number of accepted packets = 8
Total number of accepted flits = 48
Average accepted packet length = 6
Total in-flight flits = 140 (72 measured)
===== Time: 80000 =====
Class 0:
Packets read from trace = 1208 of 20989170 (0%)
Future packets = 1
Waiting packets = 0
Stalled packets = 1098
Packets pending injection = 59
Packets in flight = 35
Minimum packet latency = 779
Average packet latency = 6507.5
Maximum packet latency = 21494
Minimum network latency = 779
Average network latency = 6507.12
Maximum network latency = 21494
Slowest packet = 26
Minimum flit latency = 84
Average flit latency = 4948.38
Maximum flit latency = 21486
Slowest flit = 122
Minimum fragmentation = 6
Average fragmentation = 3331.12
Maximum fragmentation = 17150
Minimum injected packet rate = 0 (at node 0)
Average injected packet rate = 8.125e-06
Maximum injected packet rate = 8e-05 (at node 3)
Minimum accepted packet rate = 0 (at node 0)
Average accepted packet rate = 2.5e-06
Maximum accepted packet rate = 8e-05 (at node 23)
Minimum injected flit rate = 0 (at node 0)
Average injected flit rate = 3.875e-05
Maximum injected flit rate = 0.00038 (at node 3)
Minimum accepted flit rate = 0 (at node 0)
Average accepted flit rate = 1.5e-05
Maximum accepted flit rate = 0.0004 (at node 23)
Total number of injected packets = 26
Total number of injected flits = 124
Average injected packet length = 4.76923
Total number of accepted packets = 8
Total number of accepted flits = 48
Average accepted packet length = 6
Total in-flight flits = 155 (87 measured)
===== Time: 90000 =====
Class 0:
Packets read from trace = 1238 of 20989170 (0%)
Future packets = 1
Waiting packets = 0
Stalled packets = 1128
Packets pending injection = 59
Packets in flight = 35
Minimum packet latency = 779
Average packet latency = 6507.5
Maximum packet latency = 21494
Minimum network latency = 779
Average network latency = 6507.12
Maximum network latency = 21494
Slowest packet = 26
Minimum flit latency = 84
Average flit latency = 4948.38
Maximum flit latency = 21486
Slowest flit = 122
Minimum fragmentation = 6
Average fragmentation = 3331.12
Maximum fragmentation = 17150
Minimum injected packet rate = 0 (at node 0)
Average injected packet rate = 6.77083e-06
Maximum injected packet rate = 6.66667e-05 (at node 3)
Minimum accepted packet rate = 0 (at node 0)
Average accepted packet rate = 2.08333e-06
Maximum accepted packet rate = 6.66667e-05 (at node 23)
Minimum injected flit rate = 0 (at node 0)
Average injected flit rate = 3.22917e-05
Maximum injected flit rate = 0.000316667 (at node 3)
Minimum accepted flit rate = 0 (at node 0)
Average accepted flit rate = 1.25e-05
Maximum accepted flit rate = 0.000333333 (at node 23)
Total number of injected packets = 26
Total number of injected flits = 124
Average injected packet length = 4.76923
Total number of accepted packets = 8
Total number of accepted flits = 48
Average accepted packet length = 6
Total in-flight flits = 155 (87 measured)
===== Time: 100000 =====
Class 0:
Packets read from trace = 1252 of 20989170 (0%)
Future packets = 1
Waiting packets = 0
Stalled packets = 1142
Packets pending injection = 59
Packets in flight = 35
Minimum packet latency = 779
Average packet latency = 6507.5
Maximum packet latency = 21494
Minimum network latency = 779
Average network latency = 6507.12
Maximum network latency = 21494
Slowest packet = 26
Minimum flit latency = 84
Average flit latency = 4948.38
Maximum flit latency = 21486
Slowest flit = 122
Minimum fragmentation = 6
Average fragmentation = 3331.12
Maximum fragmentation = 17150
Minimum injected packet rate = 0 (at node 0)
Average injected packet rate = 5.80357e-06
Maximum injected packet rate = 5.71429e-05 (at node 3)
Minimum accepted packet rate = 0 (at node 0)
Average accepted packet rate = 1.78571e-06
Maximum accepted packet rate = 5.71429e-05 (at node 23)
Minimum injected flit rate = 0 (at node 0)
Average injected flit rate = 2.76786e-05
Maximum injected flit rate = 0.000271429 (at node 3)
Minimum accepted flit rate = 0 (at node 0)
Average accepted flit rate = 1.07143e-05
Maximum accepted flit rate = 0.000285714 (at node 23)
Total number of injected packets = 26
Total number of injected flits = 124
Average injected packet length = 4.76923
Total number of accepted packets = 8
Total number of accepted flits = 48
Average accepted packet length = 6
Total in-flight flits = 155 (87 measured)
===== Time: 110000 =====
Class 0:
Packets read from trace = 1280 of 20989170 (0%)
Future packets = 1
Waiting packets = 0
Stalled packets = 1167
Packets pending injection = 61
Packets in flight = 36
Minimum packet latency = 779
Average packet latency = 6507.5
Maximum packet latency = 21494
Minimum network latency = 779
Average network latency = 6507.12
Maximum network latency = 21494
Slowest packet = 26
Minimum flit latency = 84
Average flit latency = 4948.38
Maximum flit latency = 21486
Slowest flit = 122
Minimum fragmentation = 6
Average fragmentation = 3331.12
Maximum fragmentation = 17150
Minimum injected packet rate = 0 (at node 0)
Average injected packet rate = 5.27344e-06
Maximum injected packet rate = 5e-05 (at node 3)
Minimum accepted packet rate = 0 (at node 0)
Average accepted packet rate = 1.5625e-06
Maximum accepted packet rate = 5e-05 (at node 23)
Minimum injected flit rate = 0 (at node 0)
Average injected flit rate = 2.51953e-05
Maximum injected flit rate = 0.0002375 (at node 3)
Minimum accepted flit rate = 0 (at node 0)
Average accepted flit rate = 9.375e-06
Maximum accepted flit rate = 0.00025 (at node 23)
Total number of injected packets = 27
Total number of injected flits = 129
Average injected packet length = 4.77778
Total number of accepted packets = 8
Total number of accepted flits = 48
Average accepted packet length = 6
Total in-flight flits = 160 (92 measured)
===== Time: 120000 =====
Class 0:
Packets read from trace = 1299 of 20989170 (0%)
Future packets = 1
Waiting packets = 0
Stalled packets = 1186
Packets pending injection = 61
Packets in flight = 36
Minimum packet latency = 779
Average packet latency = 6507.5
Maximum packet latency = 21494
Minimum network latency = 779
Average network latency = 6507.12
Maximum network latency = 21494
Slowest packet = 26
Minimum flit latency = 84
Average flit latency = 4948.38
Maximum flit latency = 21486
Slowest flit = 122
Minimum fragmentation = 6
Average fragmentation = 3331.12
Maximum fragmentation = 17150
Minimum injected packet rate = 0 (at node 0)
Average injected packet rate = 4.6875e-06
Maximum injected packet rate = 4.44444e-05 (at node 3)
Minimum accepted packet rate = 0 (at node 0)
Average accepted packet rate = 1.38889e-06
Maximum accepted packet rate = 4.44444e-05 (at node 23)
Minimum injected flit rate = 0 (at node 0)
Average injected flit rate = 2.23958e-05
Maximum injected flit rate = 0.000211111 (at node 3)
Minimum accepted flit rate = 0 (at node 0)
Average accepted flit rate = 8.33333e-06
Maximum accepted flit rate = 0.000222222 (at node 23)
Total number of injected packets = 27
Total number of injected flits = 129
Average injected packet length = 4.77778
Total number of accepted packets = 8
Total number of accepted flits = 48
Average accepted packet length = 6
Total in-flight flits = 160 (92 measured)
===== Time: 130000 =====
Class 0:
Packets read from trace = 1319 of 20989170 (0%)
Future packets = 1
Waiting packets = 0
Stalled packets = 1206
Packets pending injection = 61
Packets in flight = 36
Minimum packet latency = 779
Average packet latency = 6507.5
Maximum packet latency = 21494
Minimum network latency = 779
Average network latency = 6507.12
Maximum network latency = 21494
Slowest packet = 26
Minimum flit latency = 84
Average flit latency = 4948.38
Maximum flit latency = 21486
Slowest flit = 122
Minimum fragmentation = 6
Average fragmentation = 3331.12
Maximum fragmentation = 17150
Minimum injected packet rate = 0 (at node 0)
Average injected packet rate = 4.21875e-06
Maximum injected packet rate = 4e-05 (at node 3)
Minimum accepted packet rate = 0 (at node 0)
Average accepted packet rate = 1.25e-06
Maximum accepted packet rate = 4e-05 (at node 23)
Minimum injected flit rate = 0 (at node 0)
Average injected flit rate = 2.01562e-05
Maximum injected flit rate = 0.00019 (at node 3)
Minimum accepted flit rate = 0 (at node 0)
Average accepted flit rate = 7.5e-06
Maximum accepted flit rate = 0.0002 (at node 23)
Total number of injected packets = 27
Total number of injected flits = 129
Average injected packet length = 4.77778
Total number of accepted packets = 8
Total number of accepted flits = 48
Average accepted packet length = 6
Total in-flight flits = 160 (92 measured)
Completed measurements after 130000 cycles.
Draining remaining packets ...
Class 0:
Remaining flits: 13 14 15 16 17 32 33 34 35 36 [...] (160 flits)
Measured flits: 108 109 110 111 112 128 129 130 131 132 [...] (92 flits)
Class 0:
Remaining flits: 13 14 15 16 17 32 33 34 35 36 [...] (160 flits)
Measured flits: 108 109 110 111 112 128 129 130 131 132 [...] (92 flits)
Class 0:
Remaining flits: 13 14 15 16 17 32 33 34 35 36 [...] (157 flits)
Measured flits: 108 109 110 111 112 128 129 130 131 132 [...] (89 flits)
Class 0:
Remaining flits: 13 14 15 16 17 32 33 34 35 36 [...] (143 flits)
Measured flits: 108 109 110 111 112 141 142 143 144 145 [...] (77 flits)
Class 0:
Remaining flits: 13 14 15 16 17 32 33 34 35 36 [...] (137 flits)
Measured flits: 108 109 110 111 112 143 144 145 146 147 [...] (72 flits)
Class 0:
Remaining flits: 13 14 15 16 17 32 33 34 35 36 [...] (121 flits)
Measured flits: 108 109 110 111 112 143 144 145 146 147 [...] (60 flits)
Class 0:
Remaining flits: 14 15 16 17 32 33 34 35 36 37 [...] (120 flits)
Measured flits: 108 109 110 111 112 143 144 145 146 147 [...] (60 flits)
Class 0:
Remaining flits: 32 33 34 35 36 37 38 39 40 41 [...] (110 flits)
Measured flits: 108 109 110 111 112 143 144 145 146 147 [...] (59 flits)
Class 0:
Remaining flits: 32 33 34 35 36 37 38 39 40 41 [...] (102 flits)
Measured flits: 108 109 110 111 112 143 144 145 146 147 [...] (51 flits)
Class 0:
Remaining flits: 32 33 34 35 36 37 38 39 40 41 [...] (101 flits)
Measured flits: 108 109 110 111 112 143 144 145 146 147 [...] (50 flits)
Class 0:
Remaining flits: 32 33 34 35 36 37 38 39 40 41 [...] (95 flits)
Measured flits: 108 109 110 111 112 143 144 145 146 147 [...] (49 flits)
Class 0:
Remaining flits: 32 33 34 35 36 37 38 39 40 41 [...] (86 flits)
Measured flits: 108 109 110 111 112 143 144 145 146 147 [...] (40 flits)
Class 0:
Remaining flits: 32 33 34 35 36 37 38 39 40 41 [...] (81 flits)
Measured flits: 108 109 110 111 112 143 144 145 146 147 [...] (35 flits)
Class 0:
Remaining flits: 32 33 34 35 36 37 38 39 40 41 [...] (75 flits)
Measured flits: 108 109 110 111 112 143 144 145 146 147 [...] (29 flits)
Class 0:
Remaining flits: 32 33 34 35 36 37 38 39 40 41 [...] (70 flits)
Measured flits: 109 110 111 112 143 144 145 146 147 198 [...] (24 flits)
Class 0:
Remaining flits: 32 33 34 35 36 37 38 39 40 41 [...] (69 flits)
Measured flits: 110 111 112 143 144 145 146 147 198 199 [...] (23 flits)
Class 0:
Remaining flits: 32 33 34 35 36 37 38 39 40 41 [...] (69 flits)
Measured flits: 110 111 112 143 144 145 146 147 198 199 [...] (23 flits)
Class 0:
Remaining flits: 32 33 34 35 36 37 38 39 40 41 [...] (69 flits)
Measured flits: 110 111 112 143 144 145 146 147 198 199 [...] (23 flits)
Class 0:
Remaining flits: 32 33 34 35 36 37 38 39 40 41 [...] (69 flits)
Measured flits: 110 111 112 143 144 145 146 147 198 199 [...] (23 flits)
Class 0:
Remaining flits: 32 33 34 35 36 37 38 39 40 41 [...] (69 flits)
Measured flits: 110 111 112 143 144 145 146 147 198 199 [...] (23 flits)
Class 0:
Remaining flits: 32 33 34 35 36 37 38 39 40 41 [...] (69 flits)
Measured flits: 110 111 112 143 144 145 146 147 198 199 [...] (23 flits)
Class 0:
Remaining flits: 32 33 34 35 36 37 38 39 40 41 [...] (69 flits)
Measured flits: 110 111 112 143 144 145 146 147 198 199 [...] (23 flits)
Class 0:
Remaining flits: 32 33 34 35 36 37 38 39 40 41 [...] (69 flits)
Measured flits: 110 111 112 143 144 145 146 147 198 199 [...] (23 flits)
Class 0:
Remaining flits: 32 33 34 35 36 37 38 39 40 41 [...] (69 flits)
Measured flits: 110 111 112 143 144 145 146 147 198 199 [...] (23 flits)
Class 0:
Remaining flits: 32 33 34 35 36 37 38 39 40 41 [...] (69 flits)
Measured flits: 110 111 112 143 144 145 146 147 198 199 [...] (23 flits)
Class 0:
Remaining flits: 32 33 34 35 36 37 38 39 40 41 [...] (69 flits)
Measured flits: 110 111 112 143 144 145 146 147 198 199 [...] (23 flits)
Class 0:
Remaining flits: 32 33 34 35 36 37 38 39 40 41 [...] (69 flits)
Measured flits: 110 111 112 143 144 145 146 147 198 199 [...] (23 flits)
Class 0:
Remaining flits: 32 33 34 35 36 37 38 39 40 41 [...] (69 flits)
Measured flits: 110 111 112 143 144 145 146 147 198 199 [...] (23 flits)
Class 0:
Remaining flits: 32 33 34 35 36 37 38 39 40 41 [...] (69 flits)
Measured flits: 110 111 112 143 144 145 146 147 198 199 [...] (23 flits)
Class 0:
Remaining flits: 32 33 34 35 36 37 38 39 40 41 [...] (69 flits)
Measured flits: 110 111 112 143 144 145 146 147 198 199 [...] (23 flits)
Class 0:
Remaining flits: 32 33 34 35 36 37 38 39 40 41 [...] (69 flits)
Measured flits: 110 111 112 143 144 145 146 147 198 199 [...] (23 flits)
Class 0:
Remaining flits: 32 33 34 35 36 37 38 39 40 41 [...] (69 flits)
Measured flits: 110 111 112 143 144 145 146 147 198 199 [...] (23 flits)
Class 0:
Remaining flits: 32 33 34 35 36 37 38 39 40 41 [...] (69 flits)
Measured flits: 110 111 112 143 144 145 146 147 198 199 [...] (23 flits)
Class 0:
Remaining flits: 32 33 34 35 36 37 38 39 40 41 [...] (69 flits)
Measured flits: 110 111 112 143 144 145 146 147 198 199 [...] (23 flits)
Class 0:
Remaining flits: 32 33 34 35 36 37 38 39 40 41 [...] (69 flits)
Measured flits: 110 111 112 143 144 145 146 147 198 199 [...] (23 flits)
Class 0:
Remaining flits: 32 33 34 35 36 37 38 39 40 41 [...] (69 flits)
Measured flits: 110 111 112 143 144 145 146 147 198 199 [...] (23 flits)
Class 0:
Remaining flits: 32 33 34 35 36 37 38 39 40 41 [...] (69 flits)
Measured flits: 110 111 112 143 144 145 146 147 198 199 [...] (23 flits)
Class 0:
Remaining flits: 32 33 34 35 36 37 38 39 40 41 [...] (69 flits)
Measured flits: 110 111 112 143 144 145 146 147 198 199 [...] (23 flits)
Class 0:
Remaining flits: 32 33 34 35 36 37 38 39 40 41 [...] (69 flits)
Measured flits: 110 111 112 143 144 145 146 147 198 199 [...] (23 flits)
Class 0:
Remaining flits: 32 33 34 35 36 37 38 39 40 41 [...] (69 flits)
Measured flits: 110 111 112 143 144 145 146 147 198 199 [...] (23 flits)
Class 0:
Remaining flits: 32 33 34 35 36 37 38 39 40 41 [...] (69 flits)
Measured flits: 110 111 112 143 144 145 146 147 198 199 [...] (23 flits)
Class 0:
Remaining flits: 32 33 34 35 36 37 38 39 40 41 [...] (69 flits)
Measured flits: 110 111 112 143 144 145 146 147 198 199 [...] (23 flits)
Class 0:
Remaining flits: 32 33 34 35 36 37 38 39 40 41 [...] (69 flits)
Measured flits: 110 111 112 143 144 145 146 147 198 199 [...] (23 flits)
Class 0:
Remaining flits: 32 33 34 35 36 37 38 39 40 41 [...] (69 flits)
Measured flits: 110 111 112 143 144 145 146 147 198 199 [...] (23 flits)
Class 0:
Remaining flits: 32 33 34 35 36 37 38 39 40 41 [...] (69 flits)
Measured flits: 110 111 112 143 144 145 146 147 198 199 [...] (23 flits)
Class 0:
Remaining flits: 32 33 34 35 36 37 38 39 40 41 [...] (69 flits)
Measured flits: 110 111 112 143 144 145 146 147 198 199 [...] (23 flits)
Class 0:
Remaining flits: 32 33 34 35 36 37 38 39 40 41 [...] (69 flits)
Measured flits: 110 111 112 143 144 145 146 147 198 199 [...] (23 flits)
Class 0:
Remaining flits: 32 33 34 35 36 37 38 39 40 41 [...] (69 flits)
Measured flits: 110 111 112 143 144 145 146 147 198 199 [...] (23 flits)
Class 0:
Remaining flits: 32 33 34 35 36 37 38 39 40 41 [...] (69 flits)
Measured flits: 110 111 112 143 144 145 146 147 198 199 [...] (23 flits)
Class 0:
Remaining flits: 32 33 34 35 36 37 38 39 40 41 [...] (69 flits)
Measured flits: 110 111 112 143 144 145 146 147 198 199 [...] (23 flits)
Class 0:
Remaining flits: 32 33 34 35 36 37 38 39 40 41 [...] (69 flits)
Measured flits: 110 111 112 143 144 145 146 147 198 199 [...] (23 flits)
Class 0:
Remaining flits: 32 33 34 35 36 37 38 39 40 41 [...] (69 flits)
Measured flits: 110 111 112 143 144 145 146 147 198 199 [...] (23 flits)
Class 0:
Remaining flits: 32 33 34 35 36 37 38 39 40 41 [...] (69 flits)
Measured flits: 110 111 112 143 144 145 146 147 198 199 [...] (23 flits)
Class 0:
Remaining flits: 32 33 34 35 36 37 38 39 40 41 [...] (69 flits)
Measured flits: 110 111 112 143 144 145 146 147 198 199 [...] (23 flits)
Class 0:
Remaining flits: 32 33 34 35 36 37 38 39 40 41 [...] (69 flits)
Measured flits: 110 111 112 143 144 145 146 147 198 199 [...] (23 flits)
Class 0:
Remaining flits: 32 33 34 35 36 37 38 39 40 41 [...] (69 flits)
Measured flits: 110 111 112 143 144 145 146 147 198 199 [...] (23 flits)
Class 0:
Remaining flits: 32 33 34 35 36 37 38 39 40 41 [...] (69 flits)
Measured flits: 110 111 112 143 144 145 146 147 198 199 [...] (23 flits)
Class 0:
Remaining flits: 32 33 34 35 36 37 38 39 40 41 [...] (69 flits)
Measured flits: 110 111 112 143 144 145 146 147 198 199 [...] (23 flits)
Class 0:
Remaining flits: 32 33 34 35 36 37 38 39 40 41 [...] (69 flits)
Measured flits: 110 111 112 143 144 145 146 147 198 199 [...] (23 flits)
Class 0:
Remaining flits: 32 33 34 35 36 37 38 39 40 41 [...] (69 flits)
Measured flits: 110 111 112 143 144 145 146 147 198 199 [...] (23 flits)
Class 0:
Remaining flits: 32 33 34 35 36 37 38 39 40 41 [...] (69 flits)
Measured flits: 110 111 112 143 144 145 146 147 198 199 [...] (23 flits)
Class 0:
Remaining flits: 32 33 34 35 36 37 38 39 40 41 [...] (69 flits)
Measured flits: 110 111 112 143 144 145 146 147 198 199 [...] (23 flits)
Class 0:
Remaining flits: 32 33 34 35 36 37 38 39 40 41 [...] (69 flits)
Measured flits: 110 111 112 143 144 145 146 147 198 199 [...] (23 flits)
Class 0:
Remaining flits: 32 33 34 35 36 37 38 39 40 41 [...] (69 flits)
Measured flits: 110 111 112 143 144 145 146 147 198 199 [...] (23 flits)
Class 0:
Remaining flits: 32 33 34 35 36 37 38 39 40 41 [...] (69 flits)
Measured flits: 110 111 112 143 144 145 146 147 198 199 [...] (23 flits)
Class 0:
Remaining flits: 32 33 34 35 36 37 38 39 40 41 [...] (69 flits)
Measured flits: 110 111 112 143 144 145 146 147 198 199 [...] (23 flits)
Class 0:
Remaining flits: 32 33 34 35 36 37 38 39 40 41 [...] (69 flits)
Measured flits: 110 111 112 143 144 145 146 147 198 199 [...] (23 flits)
Class 0:
Remaining flits: 32 33 34 35 36 37 38 39 40 41 [...] (69 flits)
Measured flits: 110 111 112 143 144 145 146 147 198 199 [...] (23 flits)
Class 0:
Remaining flits: 32 33 34 35 36 37 38 39 40 41 [...] (69 flits)
Measured flits: 110 111 112 143 144 145 146 147 198 199 [...] (23 flits)
Class 0:
Remaining flits: 32 33 34 35 36 37 38 39 40 41 [...] (69 flits)
Measured flits: 110 111 112 143 144 145 146 147 198 199 [...] (23 flits)
Class 0:
Remaining flits: 32 33 34 35 36 37 38 39 40 41 [...] (69 flits)
Measured flits: 110 111 112 143 144 145 146 147 198 199 [...] (23 flits)
Class 0:
Remaining flits: 32 33 34 35 36 37 38 39 40 41 [...] (69 flits)
Measured flits: 110 111 112 143 144 145 146 147 198 199 [...] (23 flits)
Class 0:
Remaining flits: 32 33 34 35 36 37 38 39 40 41 [...] (69 flits)
Measured flits: 110 111 112 143 144 145 146 147 198 199 [...] (23 flits)
Class 0:
Remaining flits: 32 33 34 35 36 37 38 39 40 41 [...] (69 flits)
Measured flits: 110 111 112 143 144 145 146 147 198 199 [...] (23 flits)
Class 0:
Remaining flits: 32 33 34 35 36 37 38 39 40 41 [...] (69 flits)
Measured flits: 110 111 112 143 144 145 146 147 198 199 [...] (23 flits)
Class 0:
Remaining flits: 32 33 34 35 36 37 38 39 40 41 [...] (69 flits)
Measured flits: 110 111 112 143 144 145 146 147 198 199 [...] (23 flits)
Class 0:
Remaining flits: 32 33 34 35 36 37 38 39 40 41 [...] (69 flits)
Measured flits: 110 111 112 143 144 145 146 147 198 199 [...] (23 flits)
Class 0:
Remaining flits: 32 33 34 35 36 37 38 39 40 41 [...] (69 flits)
Measured flits: 110 111 112 143 144 145 146 147 198 199 [...] (23 flits)
Class 0:
Remaining flits: 32 33 34 35 36 37 38 39 40 41 [...] (69 flits)
Measured flits: 110 111 112 143 144 145 146 147 198 199 [...] (23 flits)
Class 0:
Remaining flits: 32 33 34 35 36 37 38 39 40 41 [...] (69 flits)
Measured flits: 110 111 112 143 144 145 146 147 198 199 [...] (23 flits)
Class 0:
Remaining flits: 32 33 34 35 36 37 38 39 40 41 [...] (69 flits)
Measured flits: 110 111 112 143 144 145 146 147 198 199 [...] (23 flits)
Class 0:
Remaining flits: 32 33 34 35 36 37 38 39 40 41 [...] (69 flits)
Measured flits: 110 111 112 143 144 145 146 147 198 199 [...] (23 flits)
Class 0:
Remaining flits: 32 33 34 35 36 37 38 39 40 41 [...] (69 flits)
Measured flits: 110 111 112 143 144 145 146 147 198 199 [...] (23 flits)
Class 0:
Remaining flits: 32 33 34 35 36 37 38 39 40 41 [...] (69 flits)
Measured flits: 110 111 112 143 144 145 146 147 198 199 [...] (23 flits)
Class 0:
Remaining flits: 32 33 34 35 36 37 38 39 40 41 [...] (69 flits)
Measured flits: 110 111 112 143 144 145 146 147 198 199 [...] (23 flits)
Class 0:
Remaining flits: 32 33 34 35 36 37 38 39 40 41 [...] (69 flits)
Measured flits: 110 111 112 143 144 145 146 147 198 199 [...] (23 flits)
Class 0:
Remaining flits: 32 33 34 35 36 37 38 39 40 41 [...] (69 flits)
Measured flits: 110 111 112 143 144 145 146 147 198 199 [...] (23 flits)
Class 0:
Remaining flits: 32 33 34 35 36 37 38 39 40 41 [...] (69 flits)
Measured flits: 110 111 112 143 144 145 146 147 198 199 [...] (23 flits)
Class 0:
Remaining flits: 32 33 34 35 36 37 38 39 40 41 [...] (69 flits)
Measured flits: 110 111 112 143 144 145 146 147 198 199 [...] (23 flits)
Class 0:
Remaining flits: 32 33 34 35 36 37 38 39 40 41 [...] (69 flits)
Measured flits: 110 111 112 143 144 145 146 147 198 199 [...] (23 flits)
Class 0:
Remaining flits: 32 33 34 35 36 37 38 39 40 41 [...] (69 flits)
Measured flits: 110 111 112 143 144 145 146 147 198 199 [...] (23 flits)
Class 0:
Remaining flits: 32 33 34 35 36 37 38 39 40 41 [...] (69 flits)
Measured flits: 110 111 112 143 144 145 146 147 198 199 [...] (23 flits)
Class 0:
Remaining flits: 32 33 34 35 36 37 38 39 40 41 [...] (69 flits)
Measured flits: 110 111 112 143 144 145 146 147 198 199 [...] (23 flits)
Class 0:
Remaining flits: 32 33 34 35 36 37 38 39 40 41 [...] (69 flits)
Measured flits: 110 111 112 143 144 145 146 147 198 199 [...] (23 flits)
Class 0:
Remaining flits: 32 33 34 35 36 37 38 39 40 41 [...] (69 flits)
Measured flits: 110 111 112 143 144 145 146 147 198 199 [...] (23 flits)
Class 0:
Remaining flits: 32 33 34 35 36 37 38 39 40 41 [...] (69 flits)
Measured flits: 110 111 112 143 144 145 146 147 198 199 [...] (23 flits)
Class 0:
Remaining flits: 32 33 34 35 36 37 38 39 40 41 [...] (69 flits)
Measured flits: 110 111 112 143 144 145 146 147 198 199 [...] (23 flits)
Class 0:
Remaining flits: 32 33 34 35 36 37 38 39 40 41 [...] (69 flits)
Measured flits: 110 111 112 143 144 145 146 147 198 199 [...] (23 flits)
Class 0:
Remaining flits: 32 33 34 35 36 37 38 39 40 41 [...] (69 flits)
Measured flits: 110 111 112 143 144 145 146 147 198 199 [...] (23 flits)
Class 0:
Remaining flits: 32 33 34 35 36 37 38 39 40 41 [...] (69 flits)
Measured flits: 110 111 112 143 144 145 146 147 198 199 [...] (23 flits)
Class 0:
Remaining flits: 32 33 34 35 36 37 38 39 40 41 [...] (69 flits)
Measured flits: 110 111 112 143 144 145 146 147 198 199 [...] (23 flits)
Time taken is 131000 cycles
====== Traffic class 0 ======

Total number of flits generated = 243, changed lanes = 0
Overall minimum packet latency = 779 (1 samples)
Overall average packet latency = 50882.7 (1 samples)
Overall maximum packet latency = 96135 (1 samples)
Overall minimum network latency = 779 (1 samples)
Overall average network latency = 50041.2 (1 samples)
Overall maximum network latency = 96135 (1 samples)
Overall minimum flit latency = 81 (1 samples)
Overall average flit latency = 54246.4 (1 samples)
Overall maximum flit latency = 128752 (1 samples)
Overall minimum fragmentation = 4 (1 samples)
Overall average fragmentation = 7781.3 (1 samples)
Overall maximum fragmentation = 76652 (1 samples)
Overall minimum injected packet rate = 0 (1 samples)
Overall average injected packet rate = 4.21875e-06 (1 samples)
Overall maximum injected packet rate = 4e-05 (1 samples)
Overall minimum accepted packet rate = 0 (1 samples)
Overall average accepted packet rate = 1.25e-06 (1 samples)
Overall maximum accepted packet rate = 4e-05 (1 samples)
Overall minimum injected flit rate = 0 (1 samples)
Overall average injected flit rate = 2.01562e-05 (1 samples)
Overall maximum injected flit rate = 0.00019 (1 samples)
Overall minimum accepted flit rate = 0 (1 samples)
Overall average accepted flit rate = 7.5e-06 (1 samples)
Overall maximum accepted flit rate = 0.0002 (1 samples)
Overall average injected packet size = 4.77778 (1 samples)
Overall average accepted packet size = 6 (1 samples)
Overall average hops = 7.6087 (1 samples)
Overall throughput of the network (flits/cycle) = 0.00174
Overall throughput of the network (packets/cycle) = 0.00036
Overall workload runtime = 100000 (1 samples)

The distribution of the source packets of size 1 is: 

Source [0] = 0
Source [1] = 0
Source [2] = 1
Source [3] = 0
Source [4] = 0
Source [5] = 0
Source [6] = 0
Source [7] = 0
Source [8] = 0
Source [9] = 0
Source [10] = 0
Source [11] = 0
Source [12] = 0
Source [13] = 0
Source [14] = 0
Source [15] = 0
Source [16] = 0
Source [17] = 0
Source [18] = 0
Source [19] = 0
Source [20] = 0
Source [21] = 0
Source [22] = 0
Source [23] = 0
Source [24] = 0
Source [25] = 0
Source [26] = 0
Source [27] = 0
Source [28] = 0
Source [29] = 0
Source [30] = 0
Source [31] = 0
Source [32] = 0
Source [33] = 0
Source [34] = 0
Source [35] = 0
Source [36] = 0
Source [37] = 0
Source [38] = 1
Source [39] = 0
Source [40] = 0
Source [41] = 0
Source [42] = 0
Source [43] = 0
Source [44] = 0
Source [45] = 0
Source [46] = 0
Source [47] = 0
Source [48] = 0
Source [49] = 0
Source [50] = 0
Source [51] = 0
Source [52] = 0
Source [53] = 0
Source [54] = 0
Source [55] = 0
Source [56] = 0
Source [57] = 0
Source [58] = 1
Source [59] = 0
Source [60] = 0
Source [61] = 0
Source [62] = 0
Source [63] = 0
The distribution of the source packets of size 5 is: 

Source [0] = 0
Source [1] = 1
Source [2] = 1
Source [3] = 4
Source [4] = 2
Source [5] = 4
Source [6] = 4
Source [7] = 2
Source [8] = 0
Source [9] = 1
Source [10] = 1
Source [11] = 0
Source [12] = 0
Source [13] = 0
Source [14] = 0
Source [15] = 0
Source [16] = 0
Source [17] = 1
Source [18] = 0
Source [19] = 0
Source [20] = 0
Source [21] = 2
Source [22] = 1
Source [23] = 1
Source [24] = 0
Source [25] = 1
Source [26] = 0
Source [27] = 0
Source [28] = 0
Source [29] = 1
Source [30] = 0
Source [31] = 0
Source [32] = 1
Source [33] = 0
Source [34] = 0
Source [35] = 0
Source [36] = 0
Source [37] = 0
Source [38] = 2
Source [39] = 0
Source [40] = 3
Source [41] = 1
Source [42] = 0
Source [43] = 0
Source [44] = 1
Source [45] = 1
Source [46] = 0
Source [47] = 0
Source [48] = 1
Source [49] = 1
Source [50] = 0
Source [51] = 3
Source [52] = 1
Source [53] = 0
Source [54] = 3
Source [55] = 0
Source [56] = 0
Source [57] = 2
Source [58] = 0
Source [59] = 1
Source [60] = 0
Source [61] = 0
Source [62] = 0
Source [63] = 0
The distribution of the dest packets of size 1 is: 

dest [0] = 0
dest [1] = 0
dest [2] = 0
dest [3] = 0
dest [4] = 0
dest [5] = 0
dest [6] = 0
dest [7] = 0
dest [8] = 0
dest [9] = 0
dest [10] = 0
dest [11] = 0
dest [12] = 0
dest [13] = 0
dest [14] = 0
dest [15] = 0
dest [16] = 0
dest [17] = 0
dest [18] = 0
dest [19] = 0
dest [20] = 0
dest [21] = 0
dest [22] = 0
dest [23] = 0
dest [24] = 0
dest [25] = 0
dest [26] = 0
dest [27] = 0
dest [28] = 0
dest [29] = 0
dest [30] = 0
dest [31] = 0
dest [32] = 0
dest [33] = 0
dest [34] = 0
dest [35] = 0
dest [36] = 0
dest [37] = 0
dest [38] = 2
dest [39] = 0
dest [40] = 0
dest [41] = 0
dest [42] = 0
dest [43] = 0
dest [44] = 0
dest [45] = 0
dest [46] = 0
dest [47] = 0
dest [48] = 0
dest [49] = 0
dest [50] = 0
dest [51] = 0
dest [52] = 0
dest [53] = 0
dest [54] = 0
dest [55] = 0
dest [56] = 0
dest [57] = 0
dest [58] = 1
dest [59] = 0
dest [60] = 0
dest [61] = 0
dest [62] = 0
dest [63] = 0
The distribution of the dest packets of size 5 is: 

dest [0] = 0
dest [1] = 0
dest [2] = 6
dest [3] = 0
dest [4] = 0
dest [5] = 8
dest [6] = 0
dest [7] = 0
dest [8] = 0
dest [9] = 0
dest [10] = 0
dest [11] = 0
dest [12] = 0
dest [13] = 0
dest [14] = 0
dest [15] = 0
dest [16] = 2
dest [17] = 0
dest [18] = 0
dest [19] = 0
dest [20] = 0
dest [21] = 0
dest [22] = 0
dest [23] = 8
dest [24] = 0
dest [25] = 0
dest [26] = 0
dest [27] = 0
dest [28] = 0
dest [29] = 0
dest [30] = 0
dest [31] = 0
dest [32] = 0
dest [33] = 0
dest [34] = 0
dest [35] = 0
dest [36] = 0
dest [37] = 0
dest [38] = 0
dest [39] = 0
dest [40] = 4
dest [41] = 0
dest [42] = 0
dest [43] = 0
dest [44] = 0
dest [45] = 0
dest [46] = 0
dest [47] = 8
dest [48] = 0
dest [49] = 0
dest [50] = 0
dest [51] = 0
dest [52] = 0
dest [53] = 0
dest [54] = 0
dest [55] = 0
dest [56] = 0
dest [57] = 0
dest [58] = 9
dest [59] = 0
dest [60] = 0
dest [61] = 3
dest [62] = 0
dest [63] = 0Total run time 738.793
