g++ -Wall -I. -Iarbiters -Iallocators -Irouters -Inetworks -Ipower  -O3 -g -MMD -c booksim_config.cpp -o booksim_config.o
g++  outputset.o misc_utils.o routefunc.o synthetictrafficmanager.o workloadtrafficmanager.o buffer_state.o module.o flitchannel.o buffer.o main.o rng_double_wrapper.o stats.o steadystatetrafficmanager.o traffic.o batchtrafficmanager.o vc.o credit.o workload.o rng_wrapper.o injection.o config_utils.o flit.o trafficmanager.o random_utils.o booksim_config.o power/buffer_monitor.o power/switch_monitor.o power/power_module.o routers/socket_lib.o routers/router.o routers/iq_router.o arbiters/prio_arb.o arbiters/matrix_arb.o arbiters/tree_arb.o arbiters/roundrobin_arb.o arbiters/arbiter.o allocators/wavefront.o allocators/islip.o allocators/selalloc.o allocators/separable_output_first.o allocators/separable.o allocators/allocator.o allocators/pim.o allocators/separable_input_first.o allocators/loa.o allocators/maxsize.o networks/fattree.o networks/cmesh.o networks/flatfly_onchip.o networks/qtree.o networks/tree4.o networks/network.o networks/anynet.o networks/fly.o networks/dragonfly.o networks/kncube.o lex.yy.o y.tab.o netrace/netrace.o -o booksim
Master: Running timer....
Master: Running SRC....
BEGIN Configuration File: ./examples/bitrev
// Topology

topology = mesh;
k = 4;
n = 2;

// Routing
routing_function = dor;

// Flow control
num_vcs     = 1;
vc_buf_size = 4;
wait_for_tail_credit = 0;

// Router architecture
vc_allocator = islip;
sw_allocator = islip;
alloc_iters  = 1;

credit_delay   = 1;
routing_delay  = 1;
vc_alloc_delay = 1;
sw_alloc_delay = 1;

input_speedup     = 1;
output_speedup    = 1;
internal_speedup  = 1.0;

vc_busy_when_full = 0;

// Traffic
traffic = neighbor;
packet_size = 4;

// Simulation
sim_type = throughput;

injection_rate = 0.05;

END Configuration File: ./examples/bitrev
===== Time: 1000 =====
Class 0:
Minimum packet latency = 37
Average packet latency = 73.106
Maximum packet latency = 194
Minimum network latency = 38
Average network latency = 58.7049
Maximum network latency = 195
Slowest packet = 130
Minimum flit latency = 32
Average flit latency = 52.6329
Maximum flit latency = 192
Slowest flit = 523
Minimum fragmentation = 2
Average fragmentation = 5.32092
Maximum fragmentation = 134
Minimum injected packet rate = 0.038 (at node 1)
Average injected packet rate = 0.047
Maximum injected packet rate = 0.054 (at node 2)
Minimum accepted packet rate = 0.034 (at node 6)
Average accepted packet rate = 0.043625
Maximum accepted packet rate = 0.05 (at node 7)
Minimum injected flit rate = 0.151 (at node 1)
Average injected flit rate = 0.187188
Maximum injected flit rate = 0.213 (at node 2)
Minimum accepted flit rate = 0.138 (at node 6)
Average accepted flit rate = 0.175375
Maximum accepted flit rate = 0.203 (at node 7)
Total number of injected packets = 752
Total number of injected flits = 2995
Average injected packet length = 3.98271
Total number of accepted packets = 698
Total number of accepted flits = 2806
Average accepted packet length = 4.02006
Total in-flight flits = 210 (0 measured)
===== Time: 2000 =====
Class 0:
Minimum packet latency = 37
Average packet latency = 77.8526
Maximum packet latency = 254
Minimum network latency = 38
Average network latency = 59.4213
Maximum network latency = 195
Slowest packet = 130
Minimum flit latency = 32
Average flit latency = 53.3594
Maximum flit latency = 192
Slowest flit = 523
Minimum fragmentation = 2
Average fragmentation = 5.3226
Maximum fragmentation = 134
Minimum injected packet rate = 0.019 (at node 1)
Average injected packet rate = 0.0452813
Maximum injected packet rate = 0.0595 (at node 2)
Minimum accepted packet rate = 0.017 (at node 6)
Average accepted packet rate = 0.0436875
Maximum accepted packet rate = 0.058 (at node 7)
Minimum injected flit rate = 0.0755 (at node 1)
Average injected flit rate = 0.180875
Maximum injected flit rate = 0.238 (at node 2)
Minimum accepted flit rate = 0.069 (at node 6)
Average accepted flit rate = 0.175187
Maximum accepted flit rate = 0.2325 (at node 7)
Total number of injected packets = 1449
Total number of injected flits = 5788
Average injected packet length = 3.99448
Total number of accepted packets = 1398
Total number of accepted flits = 5606
Average accepted packet length = 4.01001
Total in-flight flits = 194 (0 measured)
===== Time: 3000 =====
Class 0:
Minimum packet latency = 39
Average packet latency = 83.9608
Maximum packet latency = 251
Minimum network latency = 40
Average network latency = 59.7843
Maximum network latency = 144
Slowest packet = 1379
Minimum flit latency = 33
Average flit latency = 53.8248
Maximum flit latency = 141
Slowest flit = 7707
Minimum fragmentation = 2
Average fragmentation = 5.16246
Maximum fragmentation = 88
Minimum injected packet rate = 0 (at node 1)
Average injected packet rate = 0.0445
Maximum injected packet rate = 0.061 (at node 12)
Minimum accepted packet rate = 0 (at node 6)
Average accepted packet rate = 0.044625
Maximum accepted packet rate = 0.061 (at node 1)
Minimum injected flit rate = 0 (at node 1)
Average injected flit rate = 0.178063
Maximum injected flit rate = 0.244 (at node 12)
Minimum accepted flit rate = 0 (at node 6)
Average accepted flit rate = 0.178375
Maximum accepted flit rate = 0.244 (at node 1)
Total number of injected packets = 712
Total number of injected flits = 2849
Average injected packet length = 4.0014
Total number of accepted packets = 714
Total number of accepted flits = 2854
Average accepted packet length = 3.9972
Total in-flight flits = 188 (0 measured)
===== Time: 4000 =====
Class 0:
Minimum packet latency = 38
Average packet latency = 75.8835
Maximum packet latency = 179
Minimum network latency = 39
Average network latency = 60.5559
Maximum network latency = 149
Slowest packet = 2164
Minimum flit latency = 32
Average flit latency = 55.0214
Maximum flit latency = 151
Slowest flit = 8635
Minimum fragmentation = 2
Average fragmentation = 5.13199
Maximum fragmentation = 83
Minimum injected packet rate = 0 (at node 1)
Average injected packet rate = 0.0434375
Maximum injected packet rate = 0.06 (at node 14)
Minimum accepted packet rate = 0 (at node 6)
Average accepted packet rate = 0.0429375
Maximum accepted packet rate = 0.057 (at node 3)
Minimum injected flit rate = 0 (at node 1)
Average injected flit rate = 0.173125
Maximum injected flit rate = 0.238 (at node 14)
Minimum accepted flit rate = 0 (at node 6)
Average accepted flit rate = 0.172063
Maximum accepted flit rate = 0.231 (at node 3)
Total number of injected packets = 695
Total number of injected flits = 2770
Average injected packet length = 3.98561
Total number of accepted packets = 687
Total number of accepted flits = 2753
Average accepted packet length = 4.00728
Total in-flight flits = 219 (195 measured)
===== Time: 5000 =====
Class 0:
Minimum packet latency = 38
Average packet latency = 75.0033
Maximum packet latency = 179
Minimum network latency = 39
Average network latency = 60.1973
Maximum network latency = 149
Slowest packet = 2164
Minimum flit latency = 32
Average flit latency = 54.3827
Maximum flit latency = 151
Slowest flit = 8635
Minimum fragmentation = 2
Average fragmentation = 5.38301
Maximum fragmentation = 83
Minimum injected packet rate = 0 (at node 1)
Average injected packet rate = 0.038875
Maximum injected packet rate = 0.056 (at node 8)
Minimum accepted packet rate = 0 (at node 6)
Average accepted packet rate = 0.038875
Maximum accepted packet rate = 0.0565 (at node 13)
Minimum injected flit rate = 0 (at node 1)
Average injected flit rate = 0.1555
Maximum injected flit rate = 0.2245 (at node 8)
Minimum accepted flit rate = 0 (at node 6)
Average accepted flit rate = 0.155812
Maximum accepted flit rate = 0.2265 (at node 13)
Total number of injected packets = 1244
Total number of injected flits = 4976
Average injected packet length = 4
Total number of accepted packets = 1244
Total number of accepted flits = 4986
Average accepted packet length = 4.00804
Total in-flight flits = 186 (162 measured)
===== Time: 6000 =====
Class 0:
Minimum packet latency = 38
Average packet latency = 75.2824
Maximum packet latency = 210
Minimum network latency = 39
Average network latency = 59.9754
Maximum network latency = 149
Slowest packet = 2164
Minimum flit latency = 32
Average flit latency = 53.9591
Maximum flit latency = 151
Slowest flit = 8635
Minimum fragmentation = 2
Average fragmentation = 5.53894
Maximum fragmentation = 92
Minimum injected packet rate = 0 (at node 1)
Average injected packet rate = 0.0381458
Maximum injected packet rate = 0.0543333 (at node 8)
Minimum accepted packet rate = 0 (at node 6)
Average accepted packet rate = 0.0380833
Maximum accepted packet rate = 0.055 (at node 13)
Minimum injected flit rate = 0 (at node 1)
Average injected flit rate = 0.1525
Maximum injected flit rate = 0.217667 (at node 8)
Minimum accepted flit rate = 0 (at node 6)
Average accepted flit rate = 0.152438
Maximum accepted flit rate = 0.22 (at node 13)
Total number of injected packets = 1831
Total number of injected flits = 7320
Average injected packet length = 3.99782
Total number of accepted packets = 1828
Total number of accepted flits = 7317
Average accepted packet length = 4.00274
Total in-flight flits = 195 (171 measured)
===== Time: 7000 =====
Class 0:
Minimum packet latency = 38
Average packet latency = 76.1779
Maximum packet latency = 210
Minimum network latency = 39
Average network latency = 59.6368
Maximum network latency = 149
Slowest packet = 2164
Minimum flit latency = 32
Average flit latency = 53.7232
Maximum flit latency = 151
Slowest flit = 8635
Minimum fragmentation = 2
Average fragmentation = 5.39789
Maximum fragmentation = 92
Minimum injected packet rate = 0 (at node 1)
Average injected packet rate = 0.0362969
Maximum injected packet rate = 0.05425 (at node 13)
Minimum accepted packet rate = 0 (at node 6)
Average accepted packet rate = 0.03625
Maximum accepted packet rate = 0.05425 (at node 2)
Minimum injected flit rate = 0 (at node 1)
Average injected flit rate = 0.145141
Maximum injected flit rate = 0.21725 (at node 13)
Minimum accepted flit rate = 0 (at node 6)
Average accepted flit rate = 0.145078
Maximum accepted flit rate = 0.2175 (at node 2)
Total number of injected packets = 2323
Total number of injected flits = 9289
Average injected packet length = 3.99871
Total number of accepted packets = 2320
Total number of accepted flits = 9285
Average accepted packet length = 4.00216
Total in-flight flits = 195 (171 measured)
===== Time: 8000 =====
Class 0:
Minimum packet latency = 38
Average packet latency = 77.8114
Maximum packet latency = 246
Minimum network latency = 39
Average network latency = 59.577
Maximum network latency = 149
Slowest packet = 2164
Minimum flit latency = 32
Average flit latency = 53.6348
Maximum flit latency = 151
Slowest flit = 8635
Minimum fragmentation = 2
Average fragmentation = 5.42126
Maximum fragmentation = 92
Minimum injected packet rate = 0 (at node 1)
Average injected packet rate = 0.035475
Maximum injected packet rate = 0.055 (at node 13)
Minimum accepted packet rate = 0 (at node 6)
Average accepted packet rate = 0.0354625
Maximum accepted packet rate = 0.0554 (at node 2)
Minimum injected flit rate = 0 (at node 1)
Average injected flit rate = 0.141838
Maximum injected flit rate = 0.2202 (at node 13)
Minimum accepted flit rate = 0 (at node 6)
Average accepted flit rate = 0.141912
Maximum accepted flit rate = 0.2214 (at node 2)
Total number of injected packets = 2838
Total number of injected flits = 11347
Average injected packet length = 3.99824
Total number of accepted packets = 2837
Total number of accepted flits = 11353
Average accepted packet length = 4.00176
Total in-flight flits = 195 (171 measured)
===== Time: 9000 =====
Class 0:
Minimum packet latency = 38
Average packet latency = 77.7272
Maximum packet latency = 246
Minimum network latency = 39
Average network latency = 59.625
Maximum network latency = 149
Slowest packet = 2164
Minimum flit latency = 32
Average flit latency = 53.7073
Maximum flit latency = 151
Slowest flit = 8635
Minimum fragmentation = 2
Average fragmentation = 5.36514
Maximum fragmentation = 92
Minimum injected packet rate = 0 (at node 1)
Average injected packet rate = 0.0344792
Maximum injected packet rate = 0.0551667 (at node 7)
Minimum accepted packet rate = 0 (at node 6)
Average accepted packet rate = 0.0343958
Maximum accepted packet rate = 0.055 (at node 8)
Minimum injected flit rate = 0 (at node 1)
Average injected flit rate = 0.137865
Maximum injected flit rate = 0.2205 (at node 7)
Minimum accepted flit rate = 0 (at node 6)
Average accepted flit rate = 0.137667
Maximum accepted flit rate = 0.220167 (at node 8)
Total number of injected packets = 3310
Total number of injected flits = 13235
Average injected packet length = 3.99849
Total number of accepted packets = 3302
Total number of accepted flits = 13216
Average accepted packet length = 4.00242
Total in-flight flits = 212 (188 measured)
===== Time: 10000 =====
Class 0:
Minimum packet latency = 38
Average packet latency = 77.3628
Maximum packet latency = 246
Minimum network latency = 39
Average network latency = 59.5369
Maximum network latency = 149
Slowest packet = 2164
Minimum flit latency = 32
Average flit latency = 53.6448
Maximum flit latency = 151
Slowest flit = 8635
Minimum fragmentation = 2
Average fragmentation = 5.32782
Maximum fragmentation = 92
Minimum injected packet rate = 0 (at node 1)
Average injected packet rate = 0.0334107
Maximum injected packet rate = 0.0551429 (at node 7)
Minimum accepted packet rate = 0 (at node 6)
Average accepted packet rate = 0.0333125
Maximum accepted packet rate = 0.055 (at node 8)
Minimum injected flit rate = 0 (at node 1)
Average injected flit rate = 0.133571
Maximum injected flit rate = 0.220429 (at node 7)
Minimum accepted flit rate = 0 (at node 6)
Average accepted flit rate = 0.133366
Maximum accepted flit rate = 0.220143 (at node 8)
Total number of injected packets = 3742
Total number of injected flits = 14960
Average injected packet length = 3.99786
Total number of accepted packets = 3731
Total number of accepted flits = 14937
Average accepted packet length = 4.00348
Total in-flight flits = 219 (195 measured)
Draining remaining packets ...
Class 0:
Remaining flits: 2138 2139 2188 2189 2190 2191 2268 2269 2270 2271 [...] (204 flits)
Measured flits: 10354 10355 10380 10381 10382 10383 10424 10425 10426 10427 [...] (180 flits)
Class 0:
Remaining flits: 2138 2139 2188 2189 2190 2191 2268 2269 2270 2271 [...] (186 flits)
Measured flits: 10354 10355 10380 10381 10382 10383 10424 10425 10426 10427 [...] (162 flits)
Class 0:
Remaining flits: 2138 2139 2188 2189 2190 2191 2268 2269 2270 2271 [...] (164 flits)
Measured flits: 10354 10355 10380 10381 10382 10383 10424 10425 10426 10427 [...] (140 flits)
Class 0:
Remaining flits: 2138 2139 2188 2189 2190 2191 2268 2269 2270 2271 [...] (154 flits)
Measured flits: 10354 10355 10380 10381 10382 10383 10424 10425 10426 10427 [...] (130 flits)
Class 0:
Remaining flits: 2138 2139 2188 2189 2190 2191 2268 2269 2270 2271 [...] (134 flits)
Measured flits: 10354 10355 10380 10381 10382 10383 10424 10425 10426 10427 [...] (110 flits)
Class 0:
Remaining flits: 2138 2139 2188 2189 2190 2191 2268 2269 2270 2271 [...] (126 flits)
Measured flits: 10354 10355 10380 10381 10382 10383 10424 10425 10426 10427 [...] (102 flits)
Class 0:
Remaining flits: 2138 2139 2188 2189 2190 2191 2268 2269 2270 2271 [...] (121 flits)
Measured flits: 10354 10355 10380 10381 10382 10383 10424 10425 10426 10427 [...] (97 flits)
Class 0:
Remaining flits: 2138 2139 2188 2189 2190 2191 2268 2269 2270 2271 [...] (118 flits)
Measured flits: 10354 10355 10380 10381 10382 10383 10424 10425 10426 10427 [...] (94 flits)
Class 0:
Remaining flits: 2138 2139 2188 2189 2190 2191 2268 2269 2270 2271 [...] (118 flits)
Measured flits: 10354 10355 10380 10381 10382 10383 10424 10425 10426 10427 [...] (94 flits)
Class 0:
Remaining flits: 2138 2139 2188 2189 2190 2191 2268 2269 2270 2271 [...] (118 flits)
Measured flits: 10354 10355 10380 10381 10382 10383 10424 10425 10426 10427 [...] (94 flits)
Class 0:
Remaining flits: 2138 2139 2188 2189 2190 2191 2268 2269 2270 2271 [...] (118 flits)
Measured flits: 10354 10355 10380 10381 10382 10383 10424 10425 10426 10427 [...] (94 flits)
Class 0:
Remaining flits: 2138 2139 2188 2189 2190 2191 2268 2269 2270 2271 [...] (118 flits)
Measured flits: 10354 10355 10380 10381 10382 10383 10424 10425 10426 10427 [...] (94 flits)
Class 0:
Remaining flits: 2138 2139 2188 2189 2190 2191 2268 2269 2270 2271 [...] (118 flits)
Measured flits: 10354 10355 10380 10381 10382 10383 10424 10425 10426 10427 [...] (94 flits)
Class 0:
Remaining flits: 2138 2139 2188 2189 2190 2191 2268 2269 2270 2271 [...] (118 flits)
Measured flits: 10354 10355 10380 10381 10382 10383 10424 10425 10426 10427 [...] (94 flits)
Class 0:
Remaining flits: 2138 2139 2188 2189 2190 2191 2268 2269 2270 2271 [...] (118 flits)
Measured flits: 10354 10355 10380 10381 10382 10383 10424 10425 10426 10427 [...] (94 flits)
Class 0:
Remaining flits: 2138 2139 2188 2189 2190 2191 2268 2269 2270 2271 [...] (118 flits)
Measured flits: 10354 10355 10380 10381 10382 10383 10424 10425 10426 10427 [...] (94 flits)
Class 0:
Remaining flits: 2138 2139 2188 2189 2190 2191 2268 2269 2270 2271 [...] (118 flits)
Measured flits: 10354 10355 10380 10381 10382 10383 10424 10425 10426 10427 [...] (94 flits)
Class 0:
Remaining flits: 2138 2139 2188 2189 2190 2191 2268 2269 2270 2271 [...] (118 flits)
Measured flits: 10354 10355 10380 10381 10382 10383 10424 10425 10426 10427 [...] (94 flits)
Class 0:
Remaining flits: 2138 2139 2188 2189 2190 2191 2268 2269 2270 2271 [...] (118 flits)
Measured flits: 10354 10355 10380 10381 10382 10383 10424 10425 10426 10427 [...] (94 flits)
Class 0:
Remaining flits: 2138 2139 2188 2189 2190 2191 2268 2269 2270 2271 [...] (118 flits)
Measured flits: 10354 10355 10380 10381 10382 10383 10424 10425 10426 10427 [...] (94 flits)
Class 0:
Remaining flits: 2138 2139 2188 2189 2190 2191 2268 2269 2270 2271 [...] (118 flits)
Measured flits: 10354 10355 10380 10381 10382 10383 10424 10425 10426 10427 [...] (94 flits)
Class 0:
Remaining flits: 2138 2139 2188 2189 2190 2191 2268 2269 2270 2271 [...] (118 flits)
Measured flits: 10354 10355 10380 10381 10382 10383 10424 10425 10426 10427 [...] (94 flits)
Class 0:
Remaining flits: 2138 2139 2188 2189 2190 2191 2268 2269 2270 2271 [...] (118 flits)
Measured flits: 10354 10355 10380 10381 10382 10383 10424 10425 10426 10427 [...] (94 flits)
Class 0:
Remaining flits: 2138 2139 2188 2189 2190 2191 2268 2269 2270 2271 [...] (118 flits)
Measured flits: 10354 10355 10380 10381 10382 10383 10424 10425 10426 10427 [...] (94 flits)
Class 0:
Remaining flits: 2138 2139 2188 2189 2190 2191 2268 2269 2270 2271 [...] (118 flits)
Measured flits: 10354 10355 10380 10381 10382 10383 10424 10425 10426 10427 [...] (94 flits)
Class 0:
Remaining flits: 2138 2139 2188 2189 2190 2191 2268 2269 2270 2271 [...] (118 flits)
Measured flits: 10354 10355 10380 10381 10382 10383 10424 10425 10426 10427 [...] (94 flits)
Class 0:
Remaining flits: 2138 2139 2188 2189 2190 2191 2268 2269 2270 2271 [...] (118 flits)
Measured flits: 10354 10355 10380 10381 10382 10383 10424 10425 10426 10427 [...] (94 flits)
Class 0:
Remaining flits: 2138 2139 2188 2189 2190 2191 2268 2269 2270 2271 [...] (118 flits)
Measured flits: 10354 10355 10380 10381 10382 10383 10424 10425 10426 10427 [...] (94 flits)
Class 0:
Remaining flits: 2138 2139 2188 2189 2190 2191 2268 2269 2270 2271 [...] (118 flits)
Measured flits: 10354 10355 10380 10381 10382 10383 10424 10425 10426 10427 [...] (94 flits)
Class 0:
Remaining flits: 2138 2139 2188 2189 2190 2191 2268 2269 2270 2271 [...] (118 flits)
Measured flits: 10354 10355 10380 10381 10382 10383 10424 10425 10426 10427 [...] (94 flits)
Class 0:
Remaining flits: 2138 2139 2188 2189 2190 2191 2268 2269 2270 2271 [...] (118 flits)
Measured flits: 10354 10355 10380 10381 10382 10383 10424 10425 10426 10427 [...] (94 flits)
Class 0:
Remaining flits: 2138 2139 2188 2189 2190 2191 2268 2269 2270 2271 [...] (118 flits)
Measured flits: 10354 10355 10380 10381 10382 10383 10424 10425 10426 10427 [...] (94 flits)
Class 0:
Remaining flits: 2138 2139 2188 2189 2190 2191 2268 2269 2270 2271 [...] (118 flits)
Measured flits: 10354 10355 10380 10381 10382 10383 10424 10425 10426 10427 [...] (94 flits)
Class 0:
Remaining flits: 2138 2139 2188 2189 2190 2191 2268 2269 2270 2271 [...] (118 flits)
Measured flits: 10354 10355 10380 10381 10382 10383 10424 10425 10426 10427 [...] (94 flits)
Class 0:
Remaining flits: 2138 2139 2188 2189 2190 2191 2268 2269 2270 2271 [...] (118 flits)
Measured flits: 10354 10355 10380 10381 10382 10383 10424 10425 10426 10427 [...] (94 flits)
Class 0:
Remaining flits: 2138 2139 2188 2189 2190 2191 2268 2269 2270 2271 [...] (118 flits)
Measured flits: 10354 10355 10380 10381 10382 10383 10424 10425 10426 10427 [...] (94 flits)
Class 0:
Remaining flits: 2138 2139 2188 2189 2190 2191 2268 2269 2270 2271 [...] (118 flits)
Measured flits: 10354 10355 10380 10381 10382 10383 10424 10425 10426 10427 [...] (94 flits)
Class 0:
Remaining flits: 2138 2139 2188 2189 2190 2191 2268 2269 2270 2271 [...] (118 flits)
Measured flits: 10354 10355 10380 10381 10382 10383 10424 10425 10426 10427 [...] (94 flits)
Class 0:
Remaining flits: 2138 2139 2188 2189 2190 2191 2268 2269 2270 2271 [...] (118 flits)
Measured flits: 10354 10355 10380 10381 10382 10383 10424 10425 10426 10427 [...] (94 flits)
Class 0:
Remaining flits: 2138 2139 2188 2189 2190 2191 2268 2269 2270 2271 [...] (118 flits)
Measured flits: 10354 10355 10380 10381 10382 10383 10424 10425 10426 10427 [...] (94 flits)
Class 0:
Remaining flits: 2138 2139 2188 2189 2190 2191 2268 2269 2270 2271 [...] (118 flits)
Measured flits: 10354 10355 10380 10381 10382 10383 10424 10425 10426 10427 [...] (94 flits)
Class 0:
Remaining flits: 2138 2139 2188 2189 2190 2191 2268 2269 2270 2271 [...] (118 flits)
Measured flits: 10354 10355 10380 10381 10382 10383 10424 10425 10426 10427 [...] (94 flits)
Class 0:
Remaining flits: 2138 2139 2188 2189 2190 2191 2268 2269 2270 2271 [...] (118 flits)
Measured flits: 10354 10355 10380 10381 10382 10383 10424 10425 10426 10427 [...] (94 flits)
Class 0:
Remaining flits: 2138 2139 2188 2189 2190 2191 2268 2269 2270 2271 [...] (118 flits)
Measured flits: 10354 10355 10380 10381 10382 10383 10424 10425 10426 10427 [...] (94 flits)
Class 0:
Remaining flits: 2138 2139 2188 2189 2190 2191 2268 2269 2270 2271 [...] (118 flits)
Measured flits: 10354 10355 10380 10381 10382 10383 10424 10425 10426 10427 [...] (94 flits)
Class 0:
Remaining flits: 2138 2139 2188 2189 2190 2191 2268 2269 2270 2271 [...] (118 flits)
Measured flits: 10354 10355 10380 10381 10382 10383 10424 10425 10426 10427 [...] (94 flits)
Class 0:
Remaining flits: 2138 2139 2188 2189 2190 2191 2268 2269 2270 2271 [...] (118 flits)
Measured flits: 10354 10355 10380 10381 10382 10383 10424 10425 10426 10427 [...] (94 flits)
Class 0:
Remaining flits: 2138 2139 2188 2189 2190 2191 2268 2269 2270 2271 [...] (118 flits)
Measured flits: 10354 10355 10380 10381 10382 10383 10424 10425 10426 10427 [...] (94 flits)
Class 0:
Remaining flits: 2138 2139 2188 2189 2190 2191 2268 2269 2270 2271 [...] (118 flits)
Measured flits: 10354 10355 10380 10381 10382 10383 10424 10425 10426 10427 [...] (94 flits)
Class 0:
Remaining flits: 2138 2139 2188 2189 2190 2191 2268 2269 2270 2271 [...] (118 flits)
Measured flits: 10354 10355 10380 10381 10382 10383 10424 10425 10426 10427 [...] (94 flits)
Class 0:
Remaining flits: 2138 2139 2188 2189 2190 2191 2268 2269 2270 2271 [...] (118 flits)
Measured flits: 10354 10355 10380 10381 10382 10383 10424 10425 10426 10427 [...] (94 flits)
Class 0:
Remaining flits: 2138 2139 2188 2189 2190 2191 2268 2269 2270 2271 [...] (118 flits)
Measured flits: 10354 10355 10380 10381 10382 10383 10424 10425 10426 10427 [...] (94 flits)
Class 0:
Remaining flits: 2138 2139 2188 2189 2190 2191 2268 2269 2270 2271 [...] (118 flits)
Measured flits: 10354 10355 10380 10381 10382 10383 10424 10425 10426 10427 [...] (94 flits)
Class 0:
Remaining flits: 2138 2139 2188 2189 2190 2191 2268 2269 2270 2271 [...] (118 flits)
Measured flits: 10354 10355 10380 10381 10382 10383 10424 10425 10426 10427 [...] (94 flits)
Class 0:
Remaining flits: 2138 2139 2188 2189 2190 2191 2268 2269 2270 2271 [...] (118 flits)
Measured flits: 10354 10355 10380 10381 10382 10383 10424 10425 10426 10427 [...] (94 flits)
Class 0:
Remaining flits: 2138 2139 2188 2189 2190 2191 2268 2269 2270 2271 [...] (118 flits)
Measured flits: 10354 10355 10380 10381 10382 10383 10424 10425 10426 10427 [...] (94 flits)
Class 0:
Remaining flits: 2138 2139 2188 2189 2190 2191 2268 2269 2270 2271 [...] (118 flits)
Measured flits: 10354 10355 10380 10381 10382 10383 10424 10425 10426 10427 [...] (94 flits)
Class 0:
Remaining flits: 2138 2139 2188 2189 2190 2191 2268 2269 2270 2271 [...] (118 flits)
Measured flits: 10354 10355 10380 10381 10382 10383 10424 10425 10426 10427 [...] (94 flits)
Class 0:
Remaining flits: 2138 2139 2188 2189 2190 2191 2268 2269 2270 2271 [...] (118 flits)
Measured flits: 10354 10355 10380 10381 10382 10383 10424 10425 10426 10427 [...] (94 flits)
Class 0:
Remaining flits: 2138 2139 2188 2189 2190 2191 2268 2269 2270 2271 [...] (118 flits)
Measured flits: 10354 10355 10380 10381 10382 10383 10424 10425 10426 10427 [...] (94 flits)
Class 0:
Remaining flits: 2138 2139 2188 2189 2190 2191 2268 2269 2270 2271 [...] (118 flits)
Measured flits: 10354 10355 10380 10381 10382 10383 10424 10425 10426 10427 [...] (94 flits)
Class 0:
Remaining flits: 2138 2139 2188 2189 2190 2191 2268 2269 2270 2271 [...] (118 flits)
Measured flits: 10354 10355 10380 10381 10382 10383 10424 10425 10426 10427 [...] (94 flits)
Class 0:
Remaining flits: 2138 2139 2188 2189 2190 2191 2268 2269 2270 2271 [...] (118 flits)
Measured flits: 10354 10355 10380 10381 10382 10383 10424 10425 10426 10427 [...] (94 flits)
Class 0:
Remaining flits: 2138 2139 2188 2189 2190 2191 2268 2269 2270 2271 [...] (118 flits)
Measured flits: 10354 10355 10380 10381 10382 10383 10424 10425 10426 10427 [...] (94 flits)
Class 0:
Remaining flits: 2138 2139 2188 2189 2190 2191 2268 2269 2270 2271 [...] (118 flits)
Measured flits: 10354 10355 10380 10381 10382 10383 10424 10425 10426 10427 [...] (94 flits)
Class 0:
Remaining flits: 2138 2139 2188 2189 2190 2191 2268 2269 2270 2271 [...] (118 flits)
Measured flits: 10354 10355 10380 10381 10382 10383 10424 10425 10426 10427 [...] (94 flits)
Class 0:
Remaining flits: 2138 2139 2188 2189 2190 2191 2268 2269 2270 2271 [...] (118 flits)
Measured flits: 10354 10355 10380 10381 10382 10383 10424 10425 10426 10427 [...] (94 flits)
Class 0:
Remaining flits: 2138 2139 2188 2189 2190 2191 2268 2269 2270 2271 [...] (118 flits)
Measured flits: 10354 10355 10380 10381 10382 10383 10424 10425 10426 10427 [...] (94 flits)
Class 0:
Remaining flits: 2138 2139 2188 2189 2190 2191 2268 2269 2270 2271 [...] (118 flits)
Measured flits: 10354 10355 10380 10381 10382 10383 10424 10425 10426 10427 [...] (94 flits)
Class 0:
Remaining flits: 2138 2139 2188 2189 2190 2191 2268 2269 2270 2271 [...] (118 flits)
Measured flits: 10354 10355 10380 10381 10382 10383 10424 10425 10426 10427 [...] (94 flits)
Class 0:
Remaining flits: 2138 2139 2188 2189 2190 2191 2268 2269 2270 2271 [...] (118 flits)
Measured flits: 10354 10355 10380 10381 10382 10383 10424 10425 10426 10427 [...] (94 flits)
Class 0:
Remaining flits: 2138 2139 2188 2189 2190 2191 2268 2269 2270 2271 [...] (118 flits)
Measured flits: 10354 10355 10380 10381 10382 10383 10424 10425 10426 10427 [...] (94 flits)
Class 0:
Remaining flits: 2138 2139 2188 2189 2190 2191 2268 2269 2270 2271 [...] (118 flits)
Measured flits: 10354 10355 10380 10381 10382 10383 10424 10425 10426 10427 [...] (94 flits)
Class 0:
Remaining flits: 2138 2139 2188 2189 2190 2191 2268 2269 2270 2271 [...] (118 flits)
Measured flits: 10354 10355 10380 10381 10382 10383 10424 10425 10426 10427 [...] (94 flits)
Class 0:
Remaining flits: 2138 2139 2188 2189 2190 2191 2268 2269 2270 2271 [...] (118 flits)
Measured flits: 10354 10355 10380 10381 10382 10383 10424 10425 10426 10427 [...] (94 flits)
Class 0:
Remaining flits: 2138 2139 2188 2189 2190 2191 2268 2269 2270 2271 [...] (118 flits)
Measured flits: 10354 10355 10380 10381 10382 10383 10424 10425 10426 10427 [...] (94 flits)
Class 0:
Remaining flits: 2138 2139 2188 2189 2190 2191 2268 2269 2270 2271 [...] (118 flits)
Measured flits: 10354 10355 10380 10381 10382 10383 10424 10425 10426 10427 [...] (94 flits)
Class 0:
Remaining flits: 2138 2139 2188 2189 2190 2191 2268 2269 2270 2271 [...] (118 flits)
Measured flits: 10354 10355 10380 10381 10382 10383 10424 10425 10426 10427 [...] (94 flits)
Class 0:
Remaining flits: 2138 2139 2188 2189 2190 2191 2268 2269 2270 2271 [...] (118 flits)
Measured flits: 10354 10355 10380 10381 10382 10383 10424 10425 10426 10427 [...] (94 flits)
Class 0:
Remaining flits: 2138 2139 2188 2189 2190 2191 2268 2269 2270 2271 [...] (118 flits)
Measured flits: 10354 10355 10380 10381 10382 10383 10424 10425 10426 10427 [...] (94 flits)
Class 0:
Remaining flits: 2138 2139 2188 2189 2190 2191 2268 2269 2270 2271 [...] (118 flits)
Measured flits: 10354 10355 10380 10381 10382 10383 10424 10425 10426 10427 [...] (94 flits)
Class 0:
Remaining flits: 2138 2139 2188 2189 2190 2191 2268 2269 2270 2271 [...] (118 flits)
Measured flits: 10354 10355 10380 10381 10382 10383 10424 10425 10426 10427 [...] (94 flits)
Class 0:
Remaining flits: 2138 2139 2188 2189 2190 2191 2268 2269 2270 2271 [...] (118 flits)
Measured flits: 10354 10355 10380 10381 10382 10383 10424 10425 10426 10427 [...] (94 flits)
Class 0:
Remaining flits: 2138 2139 2188 2189 2190 2191 2268 2269 2270 2271 [...] (118 flits)
Measured flits: 10354 10355 10380 10381 10382 10383 10424 10425 10426 10427 [...] (94 flits)
Class 0:
Remaining flits: 2138 2139 2188 2189 2190 2191 2268 2269 2270 2271 [...] (118 flits)
Measured flits: 10354 10355 10380 10381 10382 10383 10424 10425 10426 10427 [...] (94 flits)
Class 0:
Remaining flits: 2138 2139 2188 2189 2190 2191 2268 2269 2270 2271 [...] (118 flits)
Measured flits: 10354 10355 10380 10381 10382 10383 10424 10425 10426 10427 [...] (94 flits)
Class 0:
Remaining flits: 2138 2139 2188 2189 2190 2191 2268 2269 2270 2271 [...] (118 flits)
Measured flits: 10354 10355 10380 10381 10382 10383 10424 10425 10426 10427 [...] (94 flits)
Class 0:
Remaining flits: 2138 2139 2188 2189 2190 2191 2268 2269 2270 2271 [...] (118 flits)
Measured flits: 10354 10355 10380 10381 10382 10383 10424 10425 10426 10427 [...] (94 flits)
Class 0:
Remaining flits: 2138 2139 2188 2189 2190 2191 2268 2269 2270 2271 [...] (118 flits)
Measured flits: 10354 10355 10380 10381 10382 10383 10424 10425 10426 10427 [...] (94 flits)
Class 0:
Remaining flits: 2138 2139 2188 2189 2190 2191 2268 2269 2270 2271 [...] (118 flits)
Measured flits: 10354 10355 10380 10381 10382 10383 10424 10425 10426 10427 [...] (94 flits)
Class 0:
Remaining flits: 2138 2139 2188 2189 2190 2191 2268 2269 2270 2271 [...] (118 flits)
Measured flits: 10354 10355 10380 10381 10382 10383 10424 10425 10426 10427 [...] (94 flits)
Class 0:
Remaining flits: 2138 2139 2188 2189 2190 2191 2268 2269 2270 2271 [...] (118 flits)
Measured flits: 10354 10355 10380 10381 10382 10383 10424 10425 10426 10427 [...] (94 flits)
Class 0:
Remaining flits: 2138 2139 2188 2189 2190 2191 2268 2269 2270 2271 [...] (118 flits)
Measured flits: 10354 10355 10380 10381 10382 10383 10424 10425 10426 10427 [...] (94 flits)
Class 0:
Remaining flits: 2138 2139 2188 2189 2190 2191 2268 2269 2270 2271 [...] (118 flits)
Measured flits: 10354 10355 10380 10381 10382 10383 10424 10425 10426 10427 [...] (94 flits)
Class 0:
Remaining flits: 2138 2139 2188 2189 2190 2191 2268 2269 2270 2271 [...] (118 flits)
Measured flits: 10354 10355 10380 10381 10382 10383 10424 10425 10426 10427 [...] (94 flits)
Class 0:
Remaining flits: 2138 2139 2188 2189 2190 2191 2268 2269 2270 2271 [...] (118 flits)
Measured flits: 10354 10355 10380 10381 10382 10383 10424 10425 10426 10427 [...] (94 flits)
Class 0:
Remaining flits: 2138 2139 2188 2189 2190 2191 2268 2269 2270 2271 [...] (118 flits)
Measured flits: 10354 10355 10380 10381 10382 10383 10424 10425 10426 10427 [...] (94 flits)
Class 0:
Remaining flits: 2138 2139 2188 2189 2190 2191 2268 2269 2270 2271 [...] (118 flits)
Measured flits: 10354 10355 10380 10381 10382 10383 10424 10425 10426 10427 [...] (94 flits)
Class 0:
Remaining flits: 2138 2139 2188 2189 2190 2191 2268 2269 2270 2271 [...] (118 flits)
Measured flits: 10354 10355 10380 10381 10382 10383 10424 10425 10426 10427 [...] (94 flits)
Class 0:
Remaining flits: 2138 2139 2188 2189 2190 2191 2268 2269 2270 2271 [...] (118 flits)
Measured flits: 10354 10355 10380 10381 10382 10383 10424 10425 10426 10427 [...] (94 flits)
Class 0:
Remaining flits: 2138 2139 2188 2189 2190 2191 2268 2269 2270 2271 [...] (118 flits)
Measured flits: 10354 10355 10380 10381 10382 10383 10424 10425 10426 10427 [...] (94 flits)
Time taken is 11000 cycles
====== Traffic class 0 ======

Total number of flits generated = 23616, changed lanes = 0
Overall minimum packet latency = 38 (1 samples)
Overall average packet latency = 77.4712 (1 samples)
Overall maximum packet latency = 246 (1 samples)
Overall minimum network latency = 39 (1 samples)
Overall average network latency = 59.545 (1 samples)
Overall maximum network latency = 149 (1 samples)
Overall minimum flit latency = 32 (1 samples)
Overall average flit latency = 53.6579 (1 samples)
Overall maximum flit latency = 151 (1 samples)
Overall minimum fragmentation = 2 (1 samples)
Overall average fragmentation = 5.32983 (1 samples)
Overall maximum fragmentation = 92 (1 samples)
Overall minimum injected packet rate = 0 (1 samples)
Overall average injected packet rate = 0.0334107 (1 samples)
Overall maximum injected packet rate = 0.0551429 (1 samples)
Overall minimum accepted packet rate = 0 (1 samples)
Overall average accepted packet rate = 0.0333125 (1 samples)
Overall maximum accepted packet rate = 0.055 (1 samples)
Overall minimum injected flit rate = 0 (1 samples)
Overall average injected flit rate = 0.133571 (1 samples)
Overall maximum injected flit rate = 0.220429 (1 samples)
Overall minimum accepted flit rate = 0 (1 samples)
Overall average accepted flit rate = 0.133366 (1 samples)
Overall maximum accepted flit rate = 0.220143 (1 samples)
Overall average injected packet size = 3.99786 (1 samples)
Overall average accepted packet size = 4.00348 (1 samples)
Overall average hops = 4.07054 (1 samples)
Overall throughput of the network (flits/cycle) = 3.35686
Overall throughput of the network (packets/cycle) = 0.838429
Total run time 6070.32
