make: Nothing to be done for 'all'.
Master: Running timer....
Master: Running SRC....
BEGIN Configuration File: ./examples/bitrev
// Topology

topology = mesh;
k = 4;
n = 2;

// Routing
routing_function = dor;

// Flow control
num_vcs     = 1;
vc_buf_size = 4;
wait_for_tail_credit = 0;

// Router architecture
vc_allocator = islip;
sw_allocator = islip;
alloc_iters  = 1;

credit_delay   = 1;
routing_delay  = 1;
vc_alloc_delay = 1;
sw_alloc_delay = 1;

input_speedup     = 1;
output_speedup    = 1;
internal_speedup  = 1.0;

vc_busy_when_full = 0;

// Traffic
traffic = neighbor;
packet_size = 1;

// Simulation
sim_type = throughput;

injection_rate = 0.05;

END Configuration File: ./examples/bitrev
===== Time: 10000 =====
Class 0:
Minimum packet latency = 30
Average packet latency = 46.6517
Maximum packet latency = 149
Minimum network latency = 31
Average network latency = 47.6515
Maximum network latency = 150
Slowest packet = 1124
Minimum flit latency = 31
Average flit latency = 47.6515
Maximum flit latency = 150
Slowest flit = 1124
Minimum fragmentation = 0
Average fragmentation = 0
Maximum fragmentation = 0
Minimum injected packet rate = 0.0458 (at node 0)
Average injected packet rate = 0.0494687
Maximum injected packet rate = 0.0515 (at node 12)
Minimum accepted packet rate = 0.0457 (at node 5)
Average accepted packet rate = 0.0492812
Maximum accepted packet rate = 0.0513 (at node 1)
Minimum injected flit rate = 0.0458 (at node 0)
Average injected flit rate = 0.0494687
Maximum injected flit rate = 0.0515 (at node 12)
Minimum accepted flit rate = 0.0457 (at node 5)
Average accepted flit rate = 0.0492812
Maximum accepted flit rate = 0.0513 (at node 1)
Total number of injected packets = 7915
Total number of injected flits = 7915
Average injected packet length = 1
Total number of accepted packets = 7885
Total number of accepted flits = 7885
Average accepted packet length = 1
Total in-flight flits = 30 (0 measured)
===== Time: 20000 =====
Class 0:
Minimum packet latency = 30
Average packet latency = 46.7666
Maximum packet latency = 149
Minimum network latency = 31
Average network latency = 47.7658
Maximum network latency = 150
Slowest packet = 1124
Minimum flit latency = 31
Average flit latency = 47.7658
Maximum flit latency = 150
Slowest flit = 1124
Minimum fragmentation = 0
Average fragmentation = 0
Maximum fragmentation = 0
Minimum injected packet rate = 0.04815 (at node 8)
Average injected packet rate = 0.0500375
Maximum injected packet rate = 0.0527 (at node 12)
Minimum accepted packet rate = 0.048 (at node 13)
Average accepted packet rate = 0.0499219
Maximum accepted packet rate = 0.0525 (at node 1)
Minimum injected flit rate = 0.04815 (at node 8)
Average injected flit rate = 0.0500375
Maximum injected flit rate = 0.0527 (at node 12)
Minimum accepted flit rate = 0.048 (at node 13)
Average accepted flit rate = 0.0499219
Maximum accepted flit rate = 0.0525 (at node 1)
Total number of injected packets = 16012
Total number of injected flits = 16012
Average injected packet length = 1
Total number of accepted packets = 15975
Total number of accepted flits = 15975
Average accepted packet length = 1
Total in-flight flits = 37 (0 measured)
===== Time: 30000 =====
Class 0:
Minimum packet latency = 30
Average packet latency = 46.6537
Maximum packet latency = 122
Minimum network latency = 31
Average network latency = 47.6516
Maximum network latency = 123
Slowest packet = 16503
Minimum flit latency = 31
Average flit latency = 47.6516
Maximum flit latency = 123
Slowest flit = 16503
Minimum fragmentation = 0
Average fragmentation = 0
Maximum fragmentation = 0
Minimum injected packet rate = 0.0449 (at node 15)
Average injected packet rate = 0.0495875
Maximum injected packet rate = 0.0543 (at node 13)
Minimum accepted packet rate = 0.0446 (at node 0)
Average accepted packet rate = 0.049625
Maximum accepted packet rate = 0.0546 (at node 2)
Minimum injected flit rate = 0.0449 (at node 15)
Average injected flit rate = 0.0495875
Maximum injected flit rate = 0.0543 (at node 13)
Minimum accepted flit rate = 0.0446 (at node 0)
Average accepted flit rate = 0.049625
Maximum accepted flit rate = 0.0546 (at node 2)
Total number of injected packets = 7934
Total number of injected flits = 7934
Average injected packet length = 1
Total number of accepted packets = 7940
Total number of accepted flits = 7940
Average accepted packet length = 1
Total in-flight flits = 31 (0 measured)
===== Time: 40000 =====
Class 0:
Minimum packet latency = 30
Average packet latency = 46.8447
Maximum packet latency = 142
Minimum network latency = 31
Average network latency = 47.8436
Maximum network latency = 143
Slowest packet = 25255
Minimum flit latency = 31
Average flit latency = 47.8548
Maximum flit latency = 143
Slowest flit = 25255
Minimum fragmentation = 0
Average fragmentation = 0
Maximum fragmentation = 0
Minimum injected packet rate = 0.0474 (at node 6)
Average injected packet rate = 0.0501938
Maximum injected packet rate = 0.0545 (at node 14)
Minimum accepted packet rate = 0.0473 (at node 11)
Average accepted packet rate = 0.0501125
Maximum accepted packet rate = 0.054 (at node 3)
Minimum injected flit rate = 0.0474 (at node 6)
Average injected flit rate = 0.0501938
Maximum injected flit rate = 0.0545 (at node 14)
Minimum accepted flit rate = 0.0473 (at node 11)
Average accepted flit rate = 0.0501125
Maximum accepted flit rate = 0.054 (at node 3)
Total number of injected packets = 8031
Total number of injected flits = 8031
Average injected packet length = 1
Total number of accepted packets = 8018
Total number of accepted flits = 8018
Average accepted packet length = 1
Total in-flight flits = 44 (44 measured)
===== Time: 50000 =====
Class 0:
Minimum packet latency = 30
Average packet latency = 46.8242
Maximum packet latency = 142
Minimum network latency = 31
Average network latency = 47.8236
Maximum network latency = 143
Slowest packet = 25255
Minimum flit latency = 31
Average flit latency = 47.8292
Maximum flit latency = 143
Slowest flit = 25255
Minimum fragmentation = 0
Average fragmentation = 0
Maximum fragmentation = 0
Minimum injected packet rate = 0.04805 (at node 10)
Average injected packet rate = 0.0503
Maximum injected packet rate = 0.05355 (at node 14)
Minimum accepted packet rate = 0.04815 (at node 15)
Average accepted packet rate = 0.0502719
Maximum accepted packet rate = 0.0534 (at node 3)
Minimum injected flit rate = 0.04805 (at node 10)
Average injected flit rate = 0.0503
Maximum injected flit rate = 0.05355 (at node 14)
Minimum accepted flit rate = 0.04815 (at node 15)
Average accepted flit rate = 0.0502719
Maximum accepted flit rate = 0.0534 (at node 3)
Total number of injected packets = 16096
Total number of injected flits = 16096
Average injected packet length = 1
Total number of accepted packets = 16087
Total number of accepted flits = 16087
Average accepted packet length = 1
Total in-flight flits = 40 (40 measured)
===== Time: 60000 =====
Class 0:
Minimum packet latency = 30
Average packet latency = 46.79
Maximum packet latency = 142
Minimum network latency = 31
Average network latency = 47.7895
Maximum network latency = 143
Slowest packet = 25255
Minimum flit latency = 31
Average flit latency = 47.7933
Maximum flit latency = 143
Slowest flit = 25255
Minimum fragmentation = 0
Average fragmentation = 0
Maximum fragmentation = 0
Minimum injected packet rate = 0.0481333 (at node 10)
Average injected packet rate = 0.0501896
Maximum injected packet rate = 0.0529333 (at node 14)
Minimum accepted packet rate = 0.0481667 (at node 15)
Average accepted packet rate = 0.0501604
Maximum accepted packet rate = 0.0529 (at node 3)
Minimum injected flit rate = 0.0481333 (at node 10)
Average injected flit rate = 0.0501896
Maximum injected flit rate = 0.0529333 (at node 14)
Minimum accepted flit rate = 0.0481667 (at node 15)
Average accepted flit rate = 0.0501604
Maximum accepted flit rate = 0.0529 (at node 3)
Total number of injected packets = 24091
Total number of injected flits = 24091
Average injected packet length = 1
Total number of accepted packets = 24077
Total number of accepted flits = 24077
Average accepted packet length = 1
Total in-flight flits = 45 (45 measured)
Draining remaining packets ...
Class 0:
Remaining flits: 47969 47974 47982 47985 47991 47996 47997 48001 48003 48005 [...] (36 flits)
Measured flits: 47969 47974 47982 47985 47991 47996 47997 48001 48003 48005 [...] (36 flits)
Class 0:
Remaining flits: 47974 47982 47985 47996 48003 48005 48012 48013 48014 48015 [...] (29 flits)
Measured flits: 47974 47982 47985 47996 48003 48005 48012 48013 48014 48015 [...] (29 flits)
Class 0:
Remaining flits: 47985 47996 48003 48012 48013 48014 48015 48016 48017 48019 [...] (21 flits)
Measured flits: 47985 47996 48003 48012 48013 48014 48015 48016 48017 48019 [...] (21 flits)
Class 0:
Remaining flits: 48003 48013 48017 48022 48023 48025 48028 48029 48033 (9 flits)
Measured flits: 48003 48013 48017 48022 48023 48025 48028 48029 48033 (9 flits)
Class 0:
Remaining flits: 48013 48017 48023 48028 48033 (5 flits)
Measured flits: 48013 48017 48023 48028 48033 (5 flits)
Class 0:
Remaining flits: 48017 48028 48033 (3 flits)
Measured flits: 48017 48028 48033 (3 flits)
Class 0:
Remaining flits: 48028 48033 (2 flits)
Measured flits: 48028 48033 (2 flits)
Class 0:
Remaining flits: (0 flits)
Measured flits: (0 flits)
Class 0:
Remaining flits: (0 flits)
Measured flits: (0 flits)
Class 0:
Remaining flits: (0 flits)
Measured flits: (0 flits)
Class 0:
Remaining flits: (0 flits)
Measured flits: (0 flits)
Class 0:
Remaining flits: (0 flits)
Measured flits: (0 flits)
Class 0:
Remaining flits: (0 flits)
Measured flits: (0 flits)
Class 0:
Remaining flits: (0 flits)
Measured flits: (0 flits)
Class 0:
Remaining flits: (0 flits)
Measured flits: (0 flits)
Class 0:
Remaining flits: (0 flits)
Measured flits: (0 flits)
Class 0:
Remaining flits: (0 flits)
Measured flits: (0 flits)
Class 0:
Remaining flits: (0 flits)
Measured flits: (0 flits)
Class 0:
Remaining flits: (0 flits)
Measured flits: (0 flits)
Class 0:
Remaining flits: (0 flits)
Measured flits: (0 flits)
Class 0:
Remaining flits: (0 flits)
Measured flits: (0 flits)
Class 0:
Remaining flits: (0 flits)
Measured flits: (0 flits)
Class 0:
Remaining flits: (0 flits)
Measured flits: (0 flits)
Class 0:
Remaining flits: (0 flits)
Measured flits: (0 flits)
Class 0:
Remaining flits: (0 flits)
Measured flits: (0 flits)
Class 0:
Remaining flits: (0 flits)
Measured flits: (0 flits)
Class 0:
Remaining flits: (0 flits)
Measured flits: (0 flits)
Class 0:
Remaining flits: (0 flits)
Measured flits: (0 flits)
Class 0:
Remaining flits: (0 flits)
Measured flits: (0 flits)
Class 0:
Remaining flits: (0 flits)
Measured flits: (0 flits)
Class 0:
Remaining flits: (0 flits)
Measured flits: (0 flits)
Class 0:
Remaining flits: (0 flits)
Measured flits: (0 flits)
Class 0:
Remaining flits: (0 flits)
Measured flits: (0 flits)
Class 0:
Remaining flits: (0 flits)
Measured flits: (0 flits)
Class 0:
Remaining flits: (0 flits)
Measured flits: (0 flits)
Class 0:
Remaining flits: (0 flits)
Measured flits: (0 flits)
Class 0:
Remaining flits: (0 flits)
Measured flits: (0 flits)
Class 0:
Remaining flits: (0 flits)
Measured flits: (0 flits)
Class 0:
Remaining flits: (0 flits)
Measured flits: (0 flits)
Class 0:
Remaining flits: (0 flits)
Measured flits: (0 flits)
Class 0:
Remaining flits: (0 flits)
Measured flits: (0 flits)
Class 0:
Remaining flits: (0 flits)
Measured flits: (0 flits)
Class 0:
Remaining flits: (0 flits)
Measured flits: (0 flits)
Class 0:
Remaining flits: (0 flits)
Measured flits: (0 flits)
Class 0:
Remaining flits: (0 flits)
Measured flits: (0 flits)
Class 0:
Remaining flits: (0 flits)
Measured flits: (0 flits)
Class 0:
Remaining flits: (0 flits)
Measured flits: (0 flits)
Class 0:
Remaining flits: (0 flits)
Measured flits: (0 flits)
Class 0:
Remaining flits: (0 flits)
Measured flits: (0 flits)
Class 0:
Remaining flits: (0 flits)
Measured flits: (0 flits)
Class 0:
Remaining flits: (0 flits)
Measured flits: (0 flits)
Class 0:
Remaining flits: (0 flits)
Measured flits: (0 flits)
Class 0:
Remaining flits: (0 flits)
Measured flits: (0 flits)
Class 0:
Remaining flits: (0 flits)
Measured flits: (0 flits)
Class 0:
Remaining flits: (0 flits)
Measured flits: (0 flits)
Class 0:
Remaining flits: (0 flits)
Measured flits: (0 flits)
Class 0:
Remaining flits: (0 flits)
Measured flits: (0 flits)
Class 0:
Remaining flits: (0 flits)
Measured flits: (0 flits)
Class 0:
Remaining flits: (0 flits)
Measured flits: (0 flits)
Class 0:
Remaining flits: (0 flits)
Measured flits: (0 flits)
Class 0:
Remaining flits: (0 flits)
Measured flits: (0 flits)
Class 0:
Remaining flits: (0 flits)
Measured flits: (0 flits)
Class 0:
Remaining flits: (0 flits)
Measured flits: (0 flits)
Class 0:
Remaining flits: (0 flits)
Measured flits: (0 flits)
Class 0:
Remaining flits: (0 flits)
Measured flits: (0 flits)
Class 0:
Remaining flits: (0 flits)
Measured flits: (0 flits)
Class 0:
Remaining flits: (0 flits)
Measured flits: (0 flits)
Class 0:
Remaining flits: (0 flits)
Measured flits: (0 flits)
Class 0:
Remaining flits: (0 flits)
Measured flits: (0 flits)
Class 0:
Remaining flits: (0 flits)
Measured flits: (0 flits)
Class 0:
Remaining flits: (0 flits)
Measured flits: (0 flits)
Class 0:
Remaining flits: (0 flits)
Measured flits: (0 flits)
Class 0:
Remaining flits: (0 flits)
Measured flits: (0 flits)
Class 0:
Remaining flits: (0 flits)
Measured flits: (0 flits)
Class 0:
Remaining flits: (0 flits)
Measured flits: (0 flits)
Class 0:
Remaining flits: (0 flits)
Measured flits: (0 flits)
Class 0:
Remaining flits: (0 flits)
Measured flits: (0 flits)
Class 0:
Remaining flits: (0 flits)
Measured flits: (0 flits)
Class 0:
Remaining flits: (0 flits)
Measured flits: (0 flits)
Class 0:
Remaining flits: (0 flits)
Measured flits: (0 flits)
Class 0:
Remaining flits: (0 flits)
Measured flits: (0 flits)
Class 0:
Remaining flits: (0 flits)
Measured flits: (0 flits)
Class 0:
Remaining flits: (0 flits)
Measured flits: (0 flits)
Class 0:
Remaining flits: (0 flits)
Measured flits: (0 flits)
Class 0:
Remaining flits: (0 flits)
Measured flits: (0 flits)
Class 0:
Remaining flits: (0 flits)
Measured flits: (0 flits)
Class 0:
Remaining flits: (0 flits)
Measured flits: (0 flits)
Class 0:
Remaining flits: (0 flits)
Measured flits: (0 flits)
Class 0:
Remaining flits: (0 flits)
Measured flits: (0 flits)
Class 0:
Remaining flits: (0 flits)
Measured flits: (0 flits)
Class 0:
Remaining flits: (0 flits)
Measured flits: (0 flits)
Class 0:
Remaining flits: (0 flits)
Measured flits: (0 flits)
Class 0:
Remaining flits: (0 flits)
Measured flits: (0 flits)
Class 0:
Remaining flits: (0 flits)
Measured flits: (0 flits)
Class 0:
Remaining flits: (0 flits)
Measured flits: (0 flits)
Class 0:
Remaining flits: (0 flits)
Measured flits: (0 flits)
Class 0:
Remaining flits: (0 flits)
Measured flits: (0 flits)
Class 0:
Remaining flits: (0 flits)
Measured flits: (0 flits)
Class 0:
Remaining flits: (0 flits)
Measured flits: (0 flits)
Class 0:
Remaining flits: (0 flits)
Measured flits: (0 flits)
Class 0:
Remaining flits: (0 flits)
Measured flits: (0 flits)
Time taken is 61000 cycles
====== Traffic class 0 ======

Total number of flits generated = 48037, changed lanes = 0
Overall minimum packet latency = 30 (1 samples)
Overall average packet latency = 46.8039 (1 samples)
Overall maximum packet latency = 142 (1 samples)
Overall minimum network latency = 31 (1 samples)
Overall average network latency = 47.8033 (1 samples)
Overall maximum network latency = 143 (1 samples)
Overall minimum flit latency = 31 (1 samples)
Overall average flit latency = 47.8071 (1 samples)
Overall maximum flit latency = 143 (1 samples)
Overall minimum fragmentation = 0 (1 samples)
Overall average fragmentation = 0 (1 samples)
Overall maximum fragmentation = 0 (1 samples)
Overall minimum injected packet rate = 0.0481333 (1 samples)
Overall average injected packet rate = 0.0501896 (1 samples)
Overall maximum injected packet rate = 0.0529333 (1 samples)
Overall minimum accepted packet rate = 0.0481667 (1 samples)
Overall average accepted packet rate = 0.0501604 (1 samples)
Overall maximum accepted packet rate = 0.0529 (1 samples)
Overall minimum injected flit rate = 0.0481333 (1 samples)
Overall average injected flit rate = 0.0501896 (1 samples)
Overall maximum injected flit rate = 0.0529333 (1 samples)
Overall minimum accepted flit rate = 0.0481667 (1 samples)
Overall average accepted flit rate = 0.0501604 (1 samples)
Overall maximum accepted flit rate = 0.0529 (1 samples)
Overall average injected packet size = 1 (1 samples)
Overall average accepted packet size = 1 (1 samples)
Overall average hops = 4.0208 (1 samples)
Overall throughput of the network (flits/cycle) = 1.60123
Overall throughput of the network (packets/cycle) = 1.60123
Total run time 42.7228
