make: Nothing to be done for 'all'.
Master: Running timer....
Master: Running SRC....
BEGIN Configuration File: ./examples/bitrev
// Topology

topology = mesh;
k = 4;
n = 2;

// Routing
routing_function = romm;

// Flow control
num_vcs     = 4;
vc_buf_size = 4;
wait_for_tail_credit = 0;

// Router architecture
vc_allocator = islip;
sw_allocator = islip;
alloc_iters  = 1;

credit_delay   = 1;
routing_delay  = 1;
vc_alloc_delay = 1;
sw_alloc_delay = 1;

input_speedup     = 1;
output_speedup    = 1;
internal_speedup  = 1.0;

vc_busy_when_full = 0;

// Traffic
traffic = uniform;
packet_size = 1;

// Simulation
sim_type = throughput;

injection_rate = 0.05;

END Configuration File: ./examples/bitrev
===== Time: 10000 =====
Class 0:
Minimum packet latency = 8
Average packet latency = 42.0834
Maximum packet latency = 171
Minimum network latency = 9
Average network latency = 43.0834
Maximum network latency = 172
Slowest packet = 4796
Minimum flit latency = 9
Average flit latency = 43.0834
Maximum flit latency = 172
Slowest flit = 4796
Minimum fragmentation = 0
Average fragmentation = 0
Maximum fragmentation = 0
Minimum injected packet rate = 0.0458 (at node 0)
Average injected packet rate = 0.0494687
Maximum injected packet rate = 0.0515 (at node 12)
Minimum accepted packet rate = 0.0423 (at node 4)
Average accepted packet rate = 0.0493188
Maximum accepted packet rate = 0.0534 (at node 8)
Minimum injected flit rate = 0.0458 (at node 0)
Average injected flit rate = 0.0494687
Maximum injected flit rate = 0.0515 (at node 12)
Minimum accepted flit rate = 0.0423 (at node 4)
Average accepted flit rate = 0.0493188
Maximum accepted flit rate = 0.0534 (at node 8)
Total number of injected packets = 7915
Total number of injected flits = 7915
Average injected packet length = 1
Total number of accepted packets = 7891
Total number of accepted flits = 7891
Average accepted packet length = 1
Total in-flight flits = 24 (0 measured)
===== Time: 20000 =====
Class 0:
Minimum packet latency = 8
Average packet latency = 42.2065
Maximum packet latency = 203
Minimum network latency = 9
Average network latency = 43.2065
Maximum network latency = 204
Slowest packet = 12570
Minimum flit latency = 9
Average flit latency = 43.2065
Maximum flit latency = 204
Slowest flit = 12570
Minimum fragmentation = 0
Average fragmentation = 0
Maximum fragmentation = 0
Minimum injected packet rate = 0.0483 (at node 8)
Average injected packet rate = 0.0500375
Maximum injected packet rate = 0.0526 (at node 12)
Minimum accepted packet rate = 0.04605 (at node 4)
Average accepted packet rate = 0.049925
Maximum accepted packet rate = 0.0535 (at node 7)
Minimum injected flit rate = 0.0483 (at node 8)
Average injected flit rate = 0.0500375
Maximum injected flit rate = 0.0526 (at node 12)
Minimum accepted flit rate = 0.04605 (at node 4)
Average accepted flit rate = 0.049925
Maximum accepted flit rate = 0.0535 (at node 7)
Total number of injected packets = 16012
Total number of injected flits = 16012
Average injected packet length = 1
Total number of accepted packets = 15976
Total number of accepted flits = 15976
Average accepted packet length = 1
Total in-flight flits = 36 (0 measured)
===== Time: 30000 =====
Class 0:
Minimum packet latency = 8
Average packet latency = 42.781
Maximum packet latency = 189
Minimum network latency = 9
Average network latency = 43.781
Maximum network latency = 190
Slowest packet = 22403
Minimum flit latency = 9
Average flit latency = 43.781
Maximum flit latency = 190
Slowest flit = 22403
Minimum fragmentation = 0
Average fragmentation = 0
Maximum fragmentation = 0
Minimum injected packet rate = 0.045 (at node 15)
Average injected packet rate = 0.0495875
Maximum injected packet rate = 0.0541 (at node 13)
Minimum accepted packet rate = 0.0467 (at node 3)
Average accepted packet rate = 0.0496375
Maximum accepted packet rate = 0.0537 (at node 8)
Minimum injected flit rate = 0.045 (at node 15)
Average injected flit rate = 0.0495875
Maximum injected flit rate = 0.0541 (at node 13)
Minimum accepted flit rate = 0.0467 (at node 3)
Average accepted flit rate = 0.0496375
Maximum accepted flit rate = 0.0537 (at node 8)
Total number of injected packets = 7934
Total number of injected flits = 7934
Average injected packet length = 1
Total number of accepted packets = 7942
Total number of accepted flits = 7942
Average accepted packet length = 1
Total in-flight flits = 28 (0 measured)
===== Time: 40000 =====
Class 0:
Minimum packet latency = 8
Average packet latency = 42.394
Maximum packet latency = 144
Minimum network latency = 9
Average network latency = 43.394
Maximum network latency = 145
Slowest packet = 26693
Minimum flit latency = 9
Average flit latency = 43.4189
Maximum flit latency = 145
Slowest flit = 26693
Minimum fragmentation = 0
Average fragmentation = 0
Maximum fragmentation = 0
Minimum injected packet rate = 0.0473 (at node 6)
Average injected packet rate = 0.0501938
Maximum injected packet rate = 0.0543 (at node 14)
Minimum accepted packet rate = 0.0481 (at node 10)
Average accepted packet rate = 0.0501438
Maximum accepted packet rate = 0.0544 (at node 4)
Minimum injected flit rate = 0.0473 (at node 6)
Average injected flit rate = 0.0501938
Maximum injected flit rate = 0.0543 (at node 14)
Minimum accepted flit rate = 0.0481 (at node 10)
Average accepted flit rate = 0.0501438
Maximum accepted flit rate = 0.0544 (at node 4)
Total number of injected packets = 8031
Total number of injected flits = 8031
Average injected packet length = 1
Total number of accepted packets = 8023
Total number of accepted flits = 8023
Average accepted packet length = 1
Total in-flight flits = 36 (36 measured)
===== Time: 50000 =====
Class 0:
Minimum packet latency = 8
Average packet latency = 42.4433
Maximum packet latency = 167
Minimum network latency = 9
Average network latency = 43.4433
Maximum network latency = 168
Slowest packet = 38055
Minimum flit latency = 9
Average flit latency = 43.4557
Maximum flit latency = 168
Slowest flit = 38055
Minimum fragmentation = 0
Average fragmentation = 0
Maximum fragmentation = 0
Minimum injected packet rate = 0.04815 (at node 10)
Average injected packet rate = 0.0503
Maximum injected packet rate = 0.05345 (at node 14)
Minimum accepted packet rate = 0.04785 (at node 15)
Average accepted packet rate = 0.0502812
Maximum accepted packet rate = 0.0525 (at node 4)
Minimum injected flit rate = 0.04815 (at node 10)
Average injected flit rate = 0.0503
Maximum injected flit rate = 0.05345 (at node 14)
Minimum accepted flit rate = 0.04785 (at node 15)
Average accepted flit rate = 0.0502812
Maximum accepted flit rate = 0.0525 (at node 4)
Total number of injected packets = 16096
Total number of injected flits = 16096
Average injected packet length = 1
Total number of accepted packets = 16090
Total number of accepted flits = 16090
Average accepted packet length = 1
Total in-flight flits = 34 (34 measured)
===== Time: 60000 =====
Class 0:
Minimum packet latency = 8
Average packet latency = 42.4345
Maximum packet latency = 167
Minimum network latency = 9
Average network latency = 43.4345
Maximum network latency = 168
Slowest packet = 38055
Minimum flit latency = 9
Average flit latency = 43.4427
Maximum flit latency = 168
Slowest flit = 38055
Minimum fragmentation = 0
Average fragmentation = 0
Maximum fragmentation = 0
Minimum injected packet rate = 0.0482 (at node 10)
Average injected packet rate = 0.0501896
Maximum injected packet rate = 0.0528667 (at node 14)
Minimum accepted packet rate = 0.0479333 (at node 15)
Average accepted packet rate = 0.0501542
Maximum accepted packet rate = 0.0525667 (at node 6)
Minimum injected flit rate = 0.0482 (at node 10)
Average injected flit rate = 0.0501896
Maximum injected flit rate = 0.0528667 (at node 14)
Minimum accepted flit rate = 0.0479333 (at node 15)
Average accepted flit rate = 0.0501542
Maximum accepted flit rate = 0.0525667 (at node 6)
Total number of injected packets = 24091
Total number of injected flits = 24091
Average injected packet length = 1
Total number of accepted packets = 24074
Total number of accepted flits = 24074
Average accepted packet length = 1
Total in-flight flits = 45 (45 measured)
Draining remaining packets ...
Class 0:
Remaining flits: 47960 47978 47985 47996 47997 48000 48001 48008 48012 48015 [...] (29 flits)
Measured flits: 47960 47978 47985 47996 47997 48000 48001 48008 48012 48015 [...] (29 flits)
Class 0:
Remaining flits: 47978 47985 47996 48012 48015 48018 48020 48021 48022 48023 [...] (21 flits)
Measured flits: 47978 47985 47996 48012 48015 48018 48020 48021 48022 48023 [...] (21 flits)
Class 0:
Remaining flits: 47978 47996 48012 48015 48021 48022 48029 48031 48033 48034 [...] (11 flits)
Measured flits: 47978 47996 48012 48015 48021 48022 48029 48031 48033 48034 [...] (11 flits)
Class 0:
Remaining flits: 48021 48022 48029 48031 48033 48034 (6 flits)
Measured flits: 48021 48022 48029 48031 48033 48034 (6 flits)
Class 0:
Remaining flits: 48021 48029 48033 (3 flits)
Measured flits: 48021 48029 48033 (3 flits)
Class 0:
Remaining flits: (0 flits)
Measured flits: (0 flits)
Class 0:
Remaining flits: (0 flits)
Measured flits: (0 flits)
Class 0:
Remaining flits: (0 flits)
Measured flits: (0 flits)
Class 0:
Remaining flits: (0 flits)
Measured flits: (0 flits)
Class 0:
Remaining flits: (0 flits)
Measured flits: (0 flits)
Class 0:
Remaining flits: (0 flits)
Measured flits: (0 flits)
Class 0:
Remaining flits: (0 flits)
Measured flits: (0 flits)
Class 0:
Remaining flits: (0 flits)
Measured flits: (0 flits)
Class 0:
Remaining flits: (0 flits)
Measured flits: (0 flits)
Class 0:
Remaining flits: (0 flits)
Measured flits: (0 flits)
Class 0:
Remaining flits: (0 flits)
Measured flits: (0 flits)
Class 0:
Remaining flits: (0 flits)
Measured flits: (0 flits)
Class 0:
Remaining flits: (0 flits)
Measured flits: (0 flits)
Class 0:
Remaining flits: (0 flits)
Measured flits: (0 flits)
Class 0:
Remaining flits: (0 flits)
Measured flits: (0 flits)
Class 0:
Remaining flits: (0 flits)
Measured flits: (0 flits)
Class 0:
Remaining flits: (0 flits)
Measured flits: (0 flits)
Class 0:
Remaining flits: (0 flits)
Measured flits: (0 flits)
Class 0:
Remaining flits: (0 flits)
Measured flits: (0 flits)
Class 0:
Remaining flits: (0 flits)
Measured flits: (0 flits)
Class 0:
Remaining flits: (0 flits)
Measured flits: (0 flits)
Class 0:
Remaining flits: (0 flits)
Measured flits: (0 flits)
Class 0:
Remaining flits: (0 flits)
Measured flits: (0 flits)
Class 0:
Remaining flits: (0 flits)
Measured flits: (0 flits)
Class 0:
Remaining flits: (0 flits)
Measured flits: (0 flits)
Class 0:
Remaining flits: (0 flits)
Measured flits: (0 flits)
Class 0:
Remaining flits: (0 flits)
Measured flits: (0 flits)
Class 0:
Remaining flits: (0 flits)
Measured flits: (0 flits)
Class 0:
Remaining flits: (0 flits)
Measured flits: (0 flits)
Class 0:
Remaining flits: (0 flits)
Measured flits: (0 flits)
Class 0:
Remaining flits: (0 flits)
Measured flits: (0 flits)
Class 0:
Remaining flits: (0 flits)
Measured flits: (0 flits)
Class 0:
Remaining flits: (0 flits)
Measured flits: (0 flits)
Class 0:
Remaining flits: (0 flits)
Measured flits: (0 flits)
Class 0:
Remaining flits: (0 flits)
Measured flits: (0 flits)
Class 0:
Remaining flits: (0 flits)
Measured flits: (0 flits)
Class 0:
Remaining flits: (0 flits)
Measured flits: (0 flits)
Class 0:
Remaining flits: (0 flits)
Measured flits: (0 flits)
Class 0:
Remaining flits: (0 flits)
Measured flits: (0 flits)
Class 0:
Remaining flits: (0 flits)
Measured flits: (0 flits)
Class 0:
Remaining flits: (0 flits)
Measured flits: (0 flits)
Class 0:
Remaining flits: (0 flits)
Measured flits: (0 flits)
Class 0:
Remaining flits: (0 flits)
Measured flits: (0 flits)
Class 0:
Remaining flits: (0 flits)
Measured flits: (0 flits)
Class 0:
Remaining flits: (0 flits)
Measured flits: (0 flits)
Class 0:
Remaining flits: (0 flits)
Measured flits: (0 flits)
Class 0:
Remaining flits: (0 flits)
Measured flits: (0 flits)
Class 0:
Remaining flits: (0 flits)
Measured flits: (0 flits)
Class 0:
Remaining flits: (0 flits)
Measured flits: (0 flits)
Class 0:
Remaining flits: (0 flits)
Measured flits: (0 flits)
Class 0:
Remaining flits: (0 flits)
Measured flits: (0 flits)
Class 0:
Remaining flits: (0 flits)
Measured flits: (0 flits)
Class 0:
Remaining flits: (0 flits)
Measured flits: (0 flits)
Class 0:
Remaining flits: (0 flits)
Measured flits: (0 flits)
Class 0:
Remaining flits: (0 flits)
Measured flits: (0 flits)
Class 0:
Remaining flits: (0 flits)
Measured flits: (0 flits)
Class 0:
Remaining flits: (0 flits)
Measured flits: (0 flits)
Class 0:
Remaining flits: (0 flits)
Measured flits: (0 flits)
Class 0:
Remaining flits: (0 flits)
Measured flits: (0 flits)
Class 0:
Remaining flits: (0 flits)
Measured flits: (0 flits)
Class 0:
Remaining flits: (0 flits)
Measured flits: (0 flits)
Class 0:
Remaining flits: (0 flits)
Measured flits: (0 flits)
Class 0:
Remaining flits: (0 flits)
Measured flits: (0 flits)
Class 0:
Remaining flits: (0 flits)
Measured flits: (0 flits)
Class 0:
Remaining flits: (0 flits)
Measured flits: (0 flits)
Class 0:
Remaining flits: (0 flits)
Measured flits: (0 flits)
Class 0:
Remaining flits: (0 flits)
Measured flits: (0 flits)
Class 0:
Remaining flits: (0 flits)
Measured flits: (0 flits)
Class 0:
Remaining flits: (0 flits)
Measured flits: (0 flits)
Class 0:
Remaining flits: (0 flits)
Measured flits: (0 flits)
Class 0:
Remaining flits: (0 flits)
Measured flits: (0 flits)
Class 0:
Remaining flits: (0 flits)
Measured flits: (0 flits)
Class 0:
Remaining flits: (0 flits)
Measured flits: (0 flits)
Class 0:
Remaining flits: (0 flits)
Measured flits: (0 flits)
Class 0:
Remaining flits: (0 flits)
Measured flits: (0 flits)
Class 0:
Remaining flits: (0 flits)
Measured flits: (0 flits)
Class 0:
Remaining flits: (0 flits)
Measured flits: (0 flits)
Class 0:
Remaining flits: (0 flits)
Measured flits: (0 flits)
Class 0:
Remaining flits: (0 flits)
Measured flits: (0 flits)
Class 0:
Remaining flits: (0 flits)
Measured flits: (0 flits)
Class 0:
Remaining flits: (0 flits)
Measured flits: (0 flits)
Class 0:
Remaining flits: (0 flits)
Measured flits: (0 flits)
Class 0:
Remaining flits: (0 flits)
Measured flits: (0 flits)
Class 0:
Remaining flits: (0 flits)
Measured flits: (0 flits)
Class 0:
Remaining flits: (0 flits)
Measured flits: (0 flits)
Class 0:
Remaining flits: (0 flits)
Measured flits: (0 flits)
Class 0:
Remaining flits: (0 flits)
Measured flits: (0 flits)
Class 0:
Remaining flits: (0 flits)
Measured flits: (0 flits)
Class 0:
Remaining flits: (0 flits)
Measured flits: (0 flits)
Class 0:
Remaining flits: (0 flits)
Measured flits: (0 flits)
Class 0:
Remaining flits: (0 flits)
Measured flits: (0 flits)
Class 0:
Remaining flits: (0 flits)
Measured flits: (0 flits)
Class 0:
Remaining flits: (0 flits)
Measured flits: (0 flits)
Class 0:
Remaining flits: (0 flits)
Measured flits: (0 flits)
Class 0:
Remaining flits: (0 flits)
Measured flits: (0 flits)
Class 0:
Remaining flits: (0 flits)
Measured flits: (0 flits)
Time taken is 61000 cycles
====== Traffic class 0 ======

Total number of flits generated = 48037, changed lanes = 45835
Overall minimum packet latency = 8 (1 samples)
Overall average packet latency = 42.4459 (1 samples)
Overall maximum packet latency = 167 (1 samples)
Overall minimum network latency = 9 (1 samples)
Overall average network latency = 43.4459 (1 samples)
Overall maximum network latency = 168 (1 samples)
Overall minimum flit latency = 9 (1 samples)
Overall average flit latency = 43.4542 (1 samples)
Overall maximum flit latency = 168 (1 samples)
Overall minimum fragmentation = 0 (1 samples)
Overall average fragmentation = 0 (1 samples)
Overall maximum fragmentation = 0 (1 samples)
Overall minimum injected packet rate = 0.0482 (1 samples)
Overall average injected packet rate = 0.0501896 (1 samples)
Overall maximum injected packet rate = 0.0528667 (1 samples)
Overall minimum accepted packet rate = 0.0479333 (1 samples)
Overall average accepted packet rate = 0.0501542 (1 samples)
Overall maximum accepted packet rate = 0.0525667 (1 samples)
Overall minimum injected flit rate = 0.0482 (1 samples)
Overall average injected flit rate = 0.0501896 (1 samples)
Overall maximum injected flit rate = 0.0528667 (1 samples)
Overall minimum accepted flit rate = 0.0479333 (1 samples)
Overall average accepted flit rate = 0.0501542 (1 samples)
Overall maximum accepted flit rate = 0.0525667 (1 samples)
Overall average injected packet size = 1 (1 samples)
Overall average accepted packet size = 1 (1 samples)
Overall average hops = 3.50608 (1 samples)
Overall throughput of the network (flits/cycle) = 1.60123
Overall throughput of the network (packets/cycle) = 1.60123
Total run time 40.9347
