make: Nothing to be done for 'all'.
Master: Running timer....
Master: Running SRC....
BEGIN Configuration File: ./examples/bitrev
// Topology

topology = mesh;
k = 4;
n = 2;

// Routing
routing_function = xy_yx;

// Flow control
num_vcs     = 4;
vc_buf_size = 4;
wait_for_tail_credit = 0;

// Router architecture
vc_allocator = islip;
sw_allocator = islip;
alloc_iters  = 1;

credit_delay   = 1;
routing_delay  = 1;
vc_alloc_delay = 1;
sw_alloc_delay = 1;

input_speedup     = 1;
output_speedup    = 1;
internal_speedup  = 1.0;

vc_busy_when_full = 0;

// Traffic
traffic = uniform;
packet_size = 1;

// Simulation
sim_type = throughput;

injection_rate = 0.05;

END Configuration File: ./examples/bitrev
===== Time: 10000 =====
Class 0:
Minimum packet latency = 8
Average packet latency = 42.591
Maximum packet latency = 236
Minimum network latency = 9
Average network latency = 43.591
Maximum network latency = 237
Slowest packet = 6353
Minimum flit latency = 9
Average flit latency = 43.591
Maximum flit latency = 237
Slowest flit = 6353
Minimum fragmentation = 0
Average fragmentation = 0
Maximum fragmentation = 0
Minimum injected packet rate = 0.0458 (at node 0)
Average injected packet rate = 0.0494687
Maximum injected packet rate = 0.0515 (at node 12)
Minimum accepted packet rate = 0.0464 (at node 3)
Average accepted packet rate = 0.0492937
Maximum accepted packet rate = 0.0528 (at node 8)
Minimum injected flit rate = 0.0458 (at node 0)
Average injected flit rate = 0.0494687
Maximum injected flit rate = 0.0515 (at node 12)
Minimum accepted flit rate = 0.0464 (at node 3)
Average accepted flit rate = 0.0492937
Maximum accepted flit rate = 0.0528 (at node 8)
Total number of injected packets = 7915
Total number of injected flits = 7915
Average injected packet length = 1
Total number of accepted packets = 7887
Total number of accepted flits = 7887
Average accepted packet length = 1
Total in-flight flits = 28 (0 measured)
===== Time: 20000 =====
Class 0:
Minimum packet latency = 7
Average packet latency = 42.5038
Maximum packet latency = 236
Minimum network latency = 8
Average network latency = 43.5038
Maximum network latency = 237
Slowest packet = 6353
Minimum flit latency = 8
Average flit latency = 43.5038
Maximum flit latency = 237
Slowest flit = 6353
Minimum fragmentation = 0
Average fragmentation = 0
Maximum fragmentation = 0
Minimum injected packet rate = 0.0483 (at node 8)
Average injected packet rate = 0.0500375
Maximum injected packet rate = 0.0526 (at node 12)
Minimum accepted packet rate = 0.04585 (at node 4)
Average accepted packet rate = 0.0499219
Maximum accepted packet rate = 0.0529 (at node 8)
Minimum injected flit rate = 0.0483 (at node 8)
Average injected flit rate = 0.0500375
Maximum injected flit rate = 0.0526 (at node 12)
Minimum accepted flit rate = 0.04585 (at node 4)
Average accepted flit rate = 0.0499219
Maximum accepted flit rate = 0.0529 (at node 8)
Total number of injected packets = 16012
Total number of injected flits = 16012
Average injected packet length = 1
Total number of accepted packets = 15975
Total number of accepted flits = 15975
Average accepted packet length = 1
Total in-flight flits = 37 (0 measured)
===== Time: 30000 =====
Class 0:
Minimum packet latency = 8
Average packet latency = 42.2032
Maximum packet latency = 165
Minimum network latency = 9
Average network latency = 43.2032
Maximum network latency = 166
Slowest packet = 16160
Minimum flit latency = 9
Average flit latency = 43.2032
Maximum flit latency = 166
Slowest flit = 16160
Minimum fragmentation = 0
Average fragmentation = 0
Maximum fragmentation = 0
Minimum injected packet rate = 0.045 (at node 15)
Average injected packet rate = 0.0495875
Maximum injected packet rate = 0.0541 (at node 13)
Minimum accepted packet rate = 0.0465 (at node 10)
Average accepted packet rate = 0.0496813
Maximum accepted packet rate = 0.0547 (at node 7)
Minimum injected flit rate = 0.045 (at node 15)
Average injected flit rate = 0.0495875
Maximum injected flit rate = 0.0541 (at node 13)
Minimum accepted flit rate = 0.0465 (at node 10)
Average accepted flit rate = 0.0496813
Maximum accepted flit rate = 0.0547 (at node 7)
Total number of injected packets = 7934
Total number of injected flits = 7934
Average injected packet length = 1
Total number of accepted packets = 7949
Total number of accepted flits = 7949
Average accepted packet length = 1
Total in-flight flits = 22 (0 measured)
===== Time: 40000 =====
Class 0:
Minimum packet latency = 7
Average packet latency = 42.5597
Maximum packet latency = 297
Minimum network latency = 8
Average network latency = 43.5597
Maximum network latency = 298
Slowest packet = 25578
Minimum flit latency = 8
Average flit latency = 43.5574
Maximum flit latency = 298
Slowest flit = 25578
Minimum fragmentation = 0
Average fragmentation = 0
Maximum fragmentation = 0
Minimum injected packet rate = 0.0473 (at node 6)
Average injected packet rate = 0.0501938
Maximum injected packet rate = 0.0543 (at node 14)
Minimum accepted packet rate = 0.0469 (at node 12)
Average accepted packet rate = 0.0501062
Maximum accepted packet rate = 0.0542 (at node 7)
Minimum injected flit rate = 0.0473 (at node 6)
Average injected flit rate = 0.0501938
Maximum injected flit rate = 0.0543 (at node 14)
Minimum accepted flit rate = 0.0469 (at node 12)
Average accepted flit rate = 0.0501062
Maximum accepted flit rate = 0.0542 (at node 7)
Total number of injected packets = 8031
Total number of injected flits = 8031
Average injected packet length = 1
Total number of accepted packets = 8017
Total number of accepted flits = 8017
Average accepted packet length = 1
Total in-flight flits = 36 (36 measured)
===== Time: 50000 =====
Class 0:
Minimum packet latency = 7
Average packet latency = 42.6052
Maximum packet latency = 297
Minimum network latency = 8
Average network latency = 43.6052
Maximum network latency = 298
Slowest packet = 25578
Minimum flit latency = 8
Average flit latency = 43.604
Maximum flit latency = 298
Slowest flit = 25578
Minimum fragmentation = 0
Average fragmentation = 0
Maximum fragmentation = 0
Minimum injected packet rate = 0.04815 (at node 10)
Average injected packet rate = 0.0503
Maximum injected packet rate = 0.05345 (at node 14)
Minimum accepted packet rate = 0.0476 (at node 6)
Average accepted packet rate = 0.0502781
Maximum accepted packet rate = 0.05315 (at node 9)
Minimum injected flit rate = 0.04815 (at node 10)
Average injected flit rate = 0.0503
Maximum injected flit rate = 0.05345 (at node 14)
Minimum accepted flit rate = 0.0476 (at node 6)
Average accepted flit rate = 0.0502781
Maximum accepted flit rate = 0.05315 (at node 9)
Total number of injected packets = 16096
Total number of injected flits = 16096
Average injected packet length = 1
Total number of accepted packets = 16089
Total number of accepted flits = 16089
Average accepted packet length = 1
Total in-flight flits = 29 (29 measured)
===== Time: 60000 =====
Class 0:
Minimum packet latency = 7
Average packet latency = 42.5064
Maximum packet latency = 297
Minimum network latency = 8
Average network latency = 43.5064
Maximum network latency = 298
Slowest packet = 25578
Minimum flit latency = 8
Average flit latency = 43.5057
Maximum flit latency = 298
Slowest flit = 25578
Minimum fragmentation = 0
Average fragmentation = 0
Maximum fragmentation = 0
Minimum injected packet rate = 0.0482 (at node 10)
Average injected packet rate = 0.0501896
Maximum injected packet rate = 0.0528667 (at node 14)
Minimum accepted packet rate = 0.0481 (at node 6)
Average accepted packet rate = 0.0501604
Maximum accepted packet rate = 0.0527333 (at node 9)
Minimum injected flit rate = 0.0482 (at node 10)
Average injected flit rate = 0.0501896
Maximum injected flit rate = 0.0528667 (at node 14)
Minimum accepted flit rate = 0.0481 (at node 6)
Average accepted flit rate = 0.0501604
Maximum accepted flit rate = 0.0527333 (at node 9)
Total number of injected packets = 24091
Total number of injected flits = 24091
Average injected packet length = 1
Total number of accepted packets = 24077
Total number of accepted flits = 24077
Average accepted packet length = 1
Total in-flight flits = 36 (36 measured)
Draining remaining packets ...
Class 0:
Remaining flits: 47994 47996 47999 48003 48005 48008 48009 48010 48012 48013 [...] (30 flits)
Measured flits: 47994 47996 47999 48003 48005 48008 48009 48010 48012 48013 [...] (30 flits)
Class 0:
Remaining flits: 47996 47999 48005 48009 48010 48012 48013 48015 48017 48019 [...] (22 flits)
Measured flits: 47996 47999 48005 48009 48010 48012 48013 48015 48017 48019 [...] (22 flits)
Class 0:
Remaining flits: 47996 48005 48010 48012 48013 48019 48024 48025 48028 48030 [...] (16 flits)
Measured flits: 47996 48005 48010 48012 48013 48019 48024 48025 48028 48030 [...] (16 flits)
Class 0:
Remaining flits: 47996 48005 48010 48013 48024 48025 48030 48031 48032 48033 [...] (11 flits)
Measured flits: 47996 48005 48010 48013 48024 48025 48030 48031 48032 48033 [...] (11 flits)
Class 0:
Remaining flits: 48005 48013 48030 48031 48032 48036 (6 flits)
Measured flits: 48005 48013 48030 48031 48032 48036 (6 flits)
Class 0:
Remaining flits: 48005 48031 (2 flits)
Measured flits: 48005 48031 (2 flits)
Class 0:
Remaining flits: 48005 (1 flits)
Measured flits: 48005 (1 flits)
Class 0:
Remaining flits: 48005 (1 flits)
Measured flits: 48005 (1 flits)
Class 0:
Remaining flits: 48005 (1 flits)
Measured flits: 48005 (1 flits)
Class 0:
Remaining flits: 48005 (1 flits)
Measured flits: 48005 (1 flits)
Class 0:
Remaining flits: 48005 (1 flits)
Measured flits: 48005 (1 flits)
Class 0:
Remaining flits: 48005 (1 flits)
Measured flits: 48005 (1 flits)
Class 0:
Remaining flits: 48005 (1 flits)
Measured flits: 48005 (1 flits)
Class 0:
Remaining flits: 48005 (1 flits)
Measured flits: 48005 (1 flits)
Class 0:
Remaining flits: 48005 (1 flits)
Measured flits: 48005 (1 flits)
Class 0:
Remaining flits: 48005 (1 flits)
Measured flits: 48005 (1 flits)
Class 0:
Remaining flits: 48005 (1 flits)
Measured flits: 48005 (1 flits)
Class 0:
Remaining flits: 48005 (1 flits)
Measured flits: 48005 (1 flits)
Class 0:
Remaining flits: 48005 (1 flits)
Measured flits: 48005 (1 flits)
Class 0:
Remaining flits: 48005 (1 flits)
Measured flits: 48005 (1 flits)
Class 0:
Remaining flits: 48005 (1 flits)
Measured flits: 48005 (1 flits)
Class 0:
Remaining flits: 48005 (1 flits)
Measured flits: 48005 (1 flits)
Class 0:
Remaining flits: 48005 (1 flits)
Measured flits: 48005 (1 flits)
Class 0:
Remaining flits: 48005 (1 flits)
Measured flits: 48005 (1 flits)
Class 0:
Remaining flits: 48005 (1 flits)
Measured flits: 48005 (1 flits)
Class 0:
Remaining flits: 48005 (1 flits)
Measured flits: 48005 (1 flits)
Class 0:
Remaining flits: 48005 (1 flits)
Measured flits: 48005 (1 flits)
Class 0:
Remaining flits: 48005 (1 flits)
Measured flits: 48005 (1 flits)
Class 0:
Remaining flits: 48005 (1 flits)
Measured flits: 48005 (1 flits)
Class 0:
Remaining flits: 48005 (1 flits)
Measured flits: 48005 (1 flits)
Class 0:
Remaining flits: 48005 (1 flits)
Measured flits: 48005 (1 flits)
Class 0:
Remaining flits: 48005 (1 flits)
Measured flits: 48005 (1 flits)
Class 0:
Remaining flits: 48005 (1 flits)
Measured flits: 48005 (1 flits)
Class 0:
Remaining flits: 48005 (1 flits)
Measured flits: 48005 (1 flits)
Class 0:
Remaining flits: 48005 (1 flits)
Measured flits: 48005 (1 flits)
Class 0:
Remaining flits: 48005 (1 flits)
Measured flits: 48005 (1 flits)
Class 0:
Remaining flits: 48005 (1 flits)
Measured flits: 48005 (1 flits)
Class 0:
Remaining flits: 48005 (1 flits)
Measured flits: 48005 (1 flits)
Class 0:
Remaining flits: 48005 (1 flits)
Measured flits: 48005 (1 flits)
Class 0:
Remaining flits: 48005 (1 flits)
Measured flits: 48005 (1 flits)
Class 0:
Remaining flits: 48005 (1 flits)
Measured flits: 48005 (1 flits)
Class 0:
Remaining flits: 48005 (1 flits)
Measured flits: 48005 (1 flits)
Class 0:
Remaining flits: 48005 (1 flits)
Measured flits: 48005 (1 flits)
Class 0:
Remaining flits: 48005 (1 flits)
Measured flits: 48005 (1 flits)
Class 0:
Remaining flits: 48005 (1 flits)
Measured flits: 48005 (1 flits)
Class 0:
Remaining flits: 48005 (1 flits)
Measured flits: 48005 (1 flits)
Class 0:
Remaining flits: 48005 (1 flits)
Measured flits: 48005 (1 flits)
Class 0:
Remaining flits: 48005 (1 flits)
Measured flits: 48005 (1 flits)
Class 0:
Remaining flits: 48005 (1 flits)
Measured flits: 48005 (1 flits)
Class 0:
Remaining flits: 48005 (1 flits)
Measured flits: 48005 (1 flits)
Class 0:
Remaining flits: 48005 (1 flits)
Measured flits: 48005 (1 flits)
Class 0:
Remaining flits: 48005 (1 flits)
Measured flits: 48005 (1 flits)
Class 0:
Remaining flits: 48005 (1 flits)
Measured flits: 48005 (1 flits)
Class 0:
Remaining flits: 48005 (1 flits)
Measured flits: 48005 (1 flits)
Class 0:
Remaining flits: 48005 (1 flits)
Measured flits: 48005 (1 flits)
Class 0:
Remaining flits: 48005 (1 flits)
Measured flits: 48005 (1 flits)
Class 0:
Remaining flits: 48005 (1 flits)
Measured flits: 48005 (1 flits)
Class 0:
Remaining flits: 48005 (1 flits)
Measured flits: 48005 (1 flits)
Class 0:
Remaining flits: 48005 (1 flits)
Measured flits: 48005 (1 flits)
Class 0:
Remaining flits: 48005 (1 flits)
Measured flits: 48005 (1 flits)
Class 0:
Remaining flits: 48005 (1 flits)
Measured flits: 48005 (1 flits)
Class 0:
Remaining flits: 48005 (1 flits)
Measured flits: 48005 (1 flits)
Class 0:
Remaining flits: 48005 (1 flits)
Measured flits: 48005 (1 flits)
Class 0:
Remaining flits: 48005 (1 flits)
Measured flits: 48005 (1 flits)
Class 0:
Remaining flits: 48005 (1 flits)
Measured flits: 48005 (1 flits)
Class 0:
Remaining flits: 48005 (1 flits)
Measured flits: 48005 (1 flits)
Class 0:
Remaining flits: 48005 (1 flits)
Measured flits: 48005 (1 flits)
Class 0:
Remaining flits: 48005 (1 flits)
Measured flits: 48005 (1 flits)
Class 0:
Remaining flits: 48005 (1 flits)
Measured flits: 48005 (1 flits)
Class 0:
Remaining flits: 48005 (1 flits)
Measured flits: 48005 (1 flits)
Class 0:
Remaining flits: 48005 (1 flits)
Measured flits: 48005 (1 flits)
Class 0:
Remaining flits: 48005 (1 flits)
Measured flits: 48005 (1 flits)
Class 0:
Remaining flits: 48005 (1 flits)
Measured flits: 48005 (1 flits)
Class 0:
Remaining flits: 48005 (1 flits)
Measured flits: 48005 (1 flits)
Class 0:
Remaining flits: 48005 (1 flits)
Measured flits: 48005 (1 flits)
Class 0:
Remaining flits: 48005 (1 flits)
Measured flits: 48005 (1 flits)
Class 0:
Remaining flits: 48005 (1 flits)
Measured flits: 48005 (1 flits)
Class 0:
Remaining flits: 48005 (1 flits)
Measured flits: 48005 (1 flits)
Class 0:
Remaining flits: 48005 (1 flits)
Measured flits: 48005 (1 flits)
Class 0:
Remaining flits: 48005 (1 flits)
Measured flits: 48005 (1 flits)
Class 0:
Remaining flits: 48005 (1 flits)
Measured flits: 48005 (1 flits)
Class 0:
Remaining flits: 48005 (1 flits)
Measured flits: 48005 (1 flits)
Class 0:
Remaining flits: 48005 (1 flits)
Measured flits: 48005 (1 flits)
Class 0:
Remaining flits: 48005 (1 flits)
Measured flits: 48005 (1 flits)
Class 0:
Remaining flits: 48005 (1 flits)
Measured flits: 48005 (1 flits)
Class 0:
Remaining flits: 48005 (1 flits)
Measured flits: 48005 (1 flits)
Class 0:
Remaining flits: 48005 (1 flits)
Measured flits: 48005 (1 flits)
Class 0:
Remaining flits: 48005 (1 flits)
Measured flits: 48005 (1 flits)
Class 0:
Remaining flits: 48005 (1 flits)
Measured flits: 48005 (1 flits)
Class 0:
Remaining flits: 48005 (1 flits)
Measured flits: 48005 (1 flits)
Class 0:
Remaining flits: 48005 (1 flits)
Measured flits: 48005 (1 flits)
Class 0:
Remaining flits: 48005 (1 flits)
Measured flits: 48005 (1 flits)
Class 0:
Remaining flits: 48005 (1 flits)
Measured flits: 48005 (1 flits)
Class 0:
Remaining flits: 48005 (1 flits)
Measured flits: 48005 (1 flits)
Class 0:
Remaining flits: 48005 (1 flits)
Measured flits: 48005 (1 flits)
Class 0:
Remaining flits: 48005 (1 flits)
Measured flits: 48005 (1 flits)
Class 0:
Remaining flits: 48005 (1 flits)
Measured flits: 48005 (1 flits)
Class 0:
Remaining flits: 48005 (1 flits)
Measured flits: 48005 (1 flits)
Class 0:
Remaining flits: 48005 (1 flits)
Measured flits: 48005 (1 flits)
Class 0:
Remaining flits: 48005 (1 flits)
Measured flits: 48005 (1 flits)
Class 0:
Remaining flits: 48005 (1 flits)
Measured flits: 48005 (1 flits)
Time taken is 61000 cycles
====== Traffic class 0 ======

Total number of flits generated = 48037, changed lanes = 45695
Overall minimum packet latency = 7 (1 samples)
Overall average packet latency = 42.5181 (1 samples)
Overall maximum packet latency = 297 (1 samples)
Overall minimum network latency = 8 (1 samples)
Overall average network latency = 43.5181 (1 samples)
Overall maximum network latency = 298 (1 samples)
Overall minimum flit latency = 8 (1 samples)
Overall average flit latency = 43.5174 (1 samples)
Overall maximum flit latency = 298 (1 samples)
Overall minimum fragmentation = 0 (1 samples)
Overall average fragmentation = 0 (1 samples)
Overall maximum fragmentation = 0 (1 samples)
Overall minimum injected packet rate = 0.0482 (1 samples)
Overall average injected packet rate = 0.0501896 (1 samples)
Overall maximum injected packet rate = 0.0528667 (1 samples)
Overall minimum accepted packet rate = 0.0481 (1 samples)
Overall average accepted packet rate = 0.0501604 (1 samples)
Overall maximum accepted packet rate = 0.0527333 (1 samples)
Overall minimum injected flit rate = 0.0482 (1 samples)
Overall average injected flit rate = 0.0501896 (1 samples)
Overall maximum injected flit rate = 0.0528667 (1 samples)
Overall minimum accepted flit rate = 0.0481 (1 samples)
Overall average accepted flit rate = 0.0501604 (1 samples)
Overall maximum accepted flit rate = 0.0527333 (1 samples)
Overall average injected packet size = 1 (1 samples)
Overall average accepted packet size = 1 (1 samples)
Overall average hops = 3.50764 (1 samples)
Overall throughput of the network (flits/cycle) = 1.6012
Overall throughput of the network (packets/cycle) = 1.6012
Total run time 43.1789
