make: Nothing to be done for 'all'.
Master: Running timer....
Master: Running SRC....
BEGIN Configuration File: ./examples/bitrev
// Topology

topology = mesh;
k = 4;
n = 2;

// Routing
routing_function = adaptive_xy_yx;

// Flow control
num_vcs     = 4;
vc_buf_size = 4;
wait_for_tail_credit = 0;

// Router architecture
vc_allocator = islip;
sw_allocator = islip;
alloc_iters  = 1;

credit_delay   = 1;
routing_delay  = 1;
vc_alloc_delay = 1;
sw_alloc_delay = 1;

input_speedup     = 1;
output_speedup    = 1;
internal_speedup  = 1.0;

vc_busy_when_full = 0;

// Traffic
traffic = uniform;
packet_size = 1;

// Simulation
sim_type = throughput;

injection_rate = 0.05;

END Configuration File: ./examples/bitrev
===== Time: 10000 =====
Class 0:
Minimum packet latency = 8
Average packet latency = 41.9414
Maximum packet latency = 167
Minimum network latency = 9
Average network latency = 42.9414
Maximum network latency = 168
Slowest packet = 3704
Minimum flit latency = 9
Average flit latency = 42.9414
Maximum flit latency = 168
Slowest flit = 3704
Minimum fragmentation = 0
Average fragmentation = 0
Maximum fragmentation = 0
Minimum injected packet rate = 0.0458 (at node 0)
Average injected packet rate = 0.0494687
Maximum injected packet rate = 0.0515 (at node 12)
Minimum accepted packet rate = 0.0441 (at node 4)
Average accepted packet rate = 0.0492937
Maximum accepted packet rate = 0.0523 (at node 8)
Minimum injected flit rate = 0.0458 (at node 0)
Average injected flit rate = 0.0494687
Maximum injected flit rate = 0.0515 (at node 12)
Minimum accepted flit rate = 0.0441 (at node 4)
Average accepted flit rate = 0.0492937
Maximum accepted flit rate = 0.0523 (at node 8)
Total number of injected packets = 7915
Total number of injected flits = 7915
Average injected packet length = 1
Total number of accepted packets = 7887
Total number of accepted flits = 7887
Average accepted packet length = 1
Total in-flight flits = 28 (0 measured)
===== Time: 20000 =====
Class 0:
Minimum packet latency = 8
Average packet latency = 42.0958
Maximum packet latency = 194
Minimum network latency = 9
Average network latency = 43.0958
Maximum network latency = 195
Slowest packet = 13174
Minimum flit latency = 9
Average flit latency = 43.0958
Maximum flit latency = 195
Slowest flit = 13174
Minimum fragmentation = 0
Average fragmentation = 0
Maximum fragmentation = 0
Minimum injected packet rate = 0.0483 (at node 8)
Average injected packet rate = 0.0500375
Maximum injected packet rate = 0.0526 (at node 12)
Minimum accepted packet rate = 0.0454 (at node 4)
Average accepted packet rate = 0.049925
Maximum accepted packet rate = 0.0521 (at node 8)
Minimum injected flit rate = 0.0483 (at node 8)
Average injected flit rate = 0.0500375
Maximum injected flit rate = 0.0526 (at node 12)
Minimum accepted flit rate = 0.0454 (at node 4)
Average accepted flit rate = 0.049925
Maximum accepted flit rate = 0.0521 (at node 8)
Total number of injected packets = 16012
Total number of injected flits = 16012
Average injected packet length = 1
Total number of accepted packets = 15976
Total number of accepted flits = 15976
Average accepted packet length = 1
Total in-flight flits = 36 (0 measured)
===== Time: 30000 =====
Class 0:
Minimum packet latency = 8
Average packet latency = 42.5546
Maximum packet latency = 158
Minimum network latency = 9
Average network latency = 43.5546
Maximum network latency = 159
Slowest packet = 22415
Minimum flit latency = 9
Average flit latency = 43.5546
Maximum flit latency = 159
Slowest flit = 22415
Minimum fragmentation = 0
Average fragmentation = 0
Maximum fragmentation = 0
Minimum injected packet rate = 0.045 (at node 15)
Average injected packet rate = 0.0495875
Maximum injected packet rate = 0.0541 (at node 13)
Minimum accepted packet rate = 0.0468 (at node 2)
Average accepted packet rate = 0.0496375
Maximum accepted packet rate = 0.0524 (at node 7)
Minimum injected flit rate = 0.045 (at node 15)
Average injected flit rate = 0.0495875
Maximum injected flit rate = 0.0541 (at node 13)
Minimum accepted flit rate = 0.0468 (at node 2)
Average accepted flit rate = 0.0496375
Maximum accepted flit rate = 0.0524 (at node 7)
Total number of injected packets = 7934
Total number of injected flits = 7934
Average injected packet length = 1
Total number of accepted packets = 7942
Total number of accepted flits = 7942
Average accepted packet length = 1
Total in-flight flits = 28 (0 measured)
===== Time: 40000 =====
Class 0:
Minimum packet latency = 8
Average packet latency = 42.3378
Maximum packet latency = 236
Minimum network latency = 9
Average network latency = 43.3378
Maximum network latency = 237
Slowest packet = 29167
Minimum flit latency = 9
Average flit latency = 43.3742
Maximum flit latency = 237
Slowest flit = 29167
Minimum fragmentation = 0
Average fragmentation = 0
Maximum fragmentation = 0
Minimum injected packet rate = 0.0473 (at node 6)
Average injected packet rate = 0.0501938
Maximum injected packet rate = 0.0543 (at node 14)
Minimum accepted packet rate = 0.0461 (at node 13)
Average accepted packet rate = 0.0501438
Maximum accepted packet rate = 0.0566 (at node 7)
Minimum injected flit rate = 0.0473 (at node 6)
Average injected flit rate = 0.0501938
Maximum injected flit rate = 0.0543 (at node 14)
Minimum accepted flit rate = 0.0461 (at node 13)
Average accepted flit rate = 0.0501438
Maximum accepted flit rate = 0.0566 (at node 7)
Total number of injected packets = 8031
Total number of injected flits = 8031
Average injected packet length = 1
Total number of accepted packets = 8023
Total number of accepted flits = 8023
Average accepted packet length = 1
Total in-flight flits = 36 (36 measured)
===== Time: 50000 =====
Class 0:
Minimum packet latency = 8
Average packet latency = 42.2995
Maximum packet latency = 236
Minimum network latency = 9
Average network latency = 43.2995
Maximum network latency = 237
Slowest packet = 29167
Minimum flit latency = 9
Average flit latency = 43.3177
Maximum flit latency = 237
Slowest flit = 29167
Minimum fragmentation = 0
Average fragmentation = 0
Maximum fragmentation = 0
Minimum injected packet rate = 0.04815 (at node 10)
Average injected packet rate = 0.0503
Maximum injected packet rate = 0.05345 (at node 14)
Minimum accepted packet rate = 0.04795 (at node 0)
Average accepted packet rate = 0.0502812
Maximum accepted packet rate = 0.05395 (at node 7)
Minimum injected flit rate = 0.04815 (at node 10)
Average injected flit rate = 0.0503
Maximum injected flit rate = 0.05345 (at node 14)
Minimum accepted flit rate = 0.04795 (at node 0)
Average accepted flit rate = 0.0502812
Maximum accepted flit rate = 0.05395 (at node 7)
Total number of injected packets = 16096
Total number of injected flits = 16096
Average injected packet length = 1
Total number of accepted packets = 16090
Total number of accepted flits = 16090
Average accepted packet length = 1
Total in-flight flits = 34 (34 measured)
===== Time: 60000 =====
Class 0:
Minimum packet latency = 8
Average packet latency = 42.0962
Maximum packet latency = 236
Minimum network latency = 9
Average network latency = 43.0962
Maximum network latency = 237
Slowest packet = 29167
Minimum flit latency = 9
Average flit latency = 43.1086
Maximum flit latency = 237
Slowest flit = 29167
Minimum fragmentation = 0
Average fragmentation = 0
Maximum fragmentation = 0
Minimum injected packet rate = 0.0482 (at node 10)
Average injected packet rate = 0.0501896
Maximum injected packet rate = 0.0528667 (at node 14)
Minimum accepted packet rate = 0.0476667 (at node 0)
Average accepted packet rate = 0.0501646
Maximum accepted packet rate = 0.0529 (at node 8)
Minimum injected flit rate = 0.0482 (at node 10)
Average injected flit rate = 0.0501896
Maximum injected flit rate = 0.0528667 (at node 14)
Minimum accepted flit rate = 0.0476667 (at node 0)
Average accepted flit rate = 0.0501646
Maximum accepted flit rate = 0.0529 (at node 8)
Total number of injected packets = 24091
Total number of injected flits = 24091
Average injected packet length = 1
Total number of accepted packets = 24079
Total number of accepted flits = 24079
Average accepted packet length = 1
Total in-flight flits = 40 (40 measured)
Draining remaining packets ...
Class 0:
Remaining flits: 47983 47985 47992 47993 47994 48000 48004 48005 48007 48009 [...] (30 flits)
Measured flits: 47983 47985 47992 47993 47994 48000 48004 48005 48007 48009 [...] (30 flits)
Class 0:
Remaining flits: 47992 47994 48004 48005 48007 48009 48010 48016 48017 48018 [...] (24 flits)
Measured flits: 47992 47994 48004 48005 48007 48009 48010 48016 48017 48018 [...] (24 flits)
Class 0:
Remaining flits: 48004 48005 48009 48020 48023 48024 48026 48027 48028 48029 [...] (15 flits)
Measured flits: 48004 48005 48009 48020 48023 48024 48026 48027 48028 48029 [...] (15 flits)
Class 0:
Remaining flits: 48023 48027 48028 48029 48030 48032 (6 flits)
Measured flits: 48023 48027 48028 48029 48030 48032 (6 flits)
Class 0:
Remaining flits: 48023 48029 (2 flits)
Measured flits: 48023 48029 (2 flits)
Class 0:
Remaining flits: (0 flits)
Measured flits: (0 flits)
Class 0:
Remaining flits: (0 flits)
Measured flits: (0 flits)
Class 0:
Remaining flits: (0 flits)
Measured flits: (0 flits)
Class 0:
Remaining flits: (0 flits)
Measured flits: (0 flits)
Class 0:
Remaining flits: (0 flits)
Measured flits: (0 flits)
Class 0:
Remaining flits: (0 flits)
Measured flits: (0 flits)
Class 0:
Remaining flits: (0 flits)
Measured flits: (0 flits)
Class 0:
Remaining flits: (0 flits)
Measured flits: (0 flits)
Class 0:
Remaining flits: (0 flits)
Measured flits: (0 flits)
Class 0:
Remaining flits: (0 flits)
Measured flits: (0 flits)
Class 0:
Remaining flits: (0 flits)
Measured flits: (0 flits)
Class 0:
Remaining flits: (0 flits)
Measured flits: (0 flits)
Class 0:
Remaining flits: (0 flits)
Measured flits: (0 flits)
Class 0:
Remaining flits: (0 flits)
Measured flits: (0 flits)
Class 0:
Remaining flits: (0 flits)
Measured flits: (0 flits)
Class 0:
Remaining flits: (0 flits)
Measured flits: (0 flits)
Class 0:
Remaining flits: (0 flits)
Measured flits: (0 flits)
Class 0:
Remaining flits: (0 flits)
Measured flits: (0 flits)
Class 0:
Remaining flits: (0 flits)
Measured flits: (0 flits)
Class 0:
Remaining flits: (0 flits)
Measured flits: (0 flits)
Class 0:
Remaining flits: (0 flits)
Measured flits: (0 flits)
Class 0:
Remaining flits: (0 flits)
Measured flits: (0 flits)
Class 0:
Remaining flits: (0 flits)
Measured flits: (0 flits)
Class 0:
Remaining flits: (0 flits)
Measured flits: (0 flits)
Class 0:
Remaining flits: (0 flits)
Measured flits: (0 flits)
Class 0:
Remaining flits: (0 flits)
Measured flits: (0 flits)
Class 0:
Remaining flits: (0 flits)
Measured flits: (0 flits)
Class 0:
Remaining flits: (0 flits)
Measured flits: (0 flits)
Class 0:
Remaining flits: (0 flits)
Measured flits: (0 flits)
Class 0:
Remaining flits: (0 flits)
Measured flits: (0 flits)
Class 0:
Remaining flits: (0 flits)
Measured flits: (0 flits)
Class 0:
Remaining flits: (0 flits)
Measured flits: (0 flits)
Class 0:
Remaining flits: (0 flits)
Measured flits: (0 flits)
Class 0:
Remaining flits: (0 flits)
Measured flits: (0 flits)
Class 0:
Remaining flits: (0 flits)
Measured flits: (0 flits)
Class 0:
Remaining flits: (0 flits)
Measured flits: (0 flits)
Class 0:
Remaining flits: (0 flits)
Measured flits: (0 flits)
Class 0:
Remaining flits: (0 flits)
Measured flits: (0 flits)
Class 0:
Remaining flits: (0 flits)
Measured flits: (0 flits)
Class 0:
Remaining flits: (0 flits)
Measured flits: (0 flits)
Class 0:
Remaining flits: (0 flits)
Measured flits: (0 flits)
Class 0:
Remaining flits: (0 flits)
Measured flits: (0 flits)
Class 0:
Remaining flits: (0 flits)
Measured flits: (0 flits)
Class 0:
Remaining flits: (0 flits)
Measured flits: (0 flits)
Class 0:
Remaining flits: (0 flits)
Measured flits: (0 flits)
Class 0:
Remaining flits: (0 flits)
Measured flits: (0 flits)
Class 0:
Remaining flits: (0 flits)
Measured flits: (0 flits)
Class 0:
Remaining flits: (0 flits)
Measured flits: (0 flits)
Class 0:
Remaining flits: (0 flits)
Measured flits: (0 flits)
Class 0:
Remaining flits: (0 flits)
Measured flits: (0 flits)
Class 0:
Remaining flits: (0 flits)
Measured flits: (0 flits)
Class 0:
Remaining flits: (0 flits)
Measured flits: (0 flits)
Class 0:
Remaining flits: (0 flits)
Measured flits: (0 flits)
Class 0:
Remaining flits: (0 flits)
Measured flits: (0 flits)
Class 0:
Remaining flits: (0 flits)
Measured flits: (0 flits)
Class 0:
Remaining flits: (0 flits)
Measured flits: (0 flits)
Class 0:
Remaining flits: (0 flits)
Measured flits: (0 flits)
Class 0:
Remaining flits: (0 flits)
Measured flits: (0 flits)
Class 0:
Remaining flits: (0 flits)
Measured flits: (0 flits)
Class 0:
Remaining flits: (0 flits)
Measured flits: (0 flits)
Class 0:
Remaining flits: (0 flits)
Measured flits: (0 flits)
Class 0:
Remaining flits: (0 flits)
Measured flits: (0 flits)
Class 0:
Remaining flits: (0 flits)
Measured flits: (0 flits)
Class 0:
Remaining flits: (0 flits)
Measured flits: (0 flits)
Class 0:
Remaining flits: (0 flits)
Measured flits: (0 flits)
Class 0:
Remaining flits: (0 flits)
Measured flits: (0 flits)
Class 0:
Remaining flits: (0 flits)
Measured flits: (0 flits)
Class 0:
Remaining flits: (0 flits)
Measured flits: (0 flits)
Class 0:
Remaining flits: (0 flits)
Measured flits: (0 flits)
Class 0:
Remaining flits: (0 flits)
Measured flits: (0 flits)
Class 0:
Remaining flits: (0 flits)
Measured flits: (0 flits)
Class 0:
Remaining flits: (0 flits)
Measured flits: (0 flits)
Class 0:
Remaining flits: (0 flits)
Measured flits: (0 flits)
Class 0:
Remaining flits: (0 flits)
Measured flits: (0 flits)
Class 0:
Remaining flits: (0 flits)
Measured flits: (0 flits)
Class 0:
Remaining flits: (0 flits)
Measured flits: (0 flits)
Class 0:
Remaining flits: (0 flits)
Measured flits: (0 flits)
Class 0:
Remaining flits: (0 flits)
Measured flits: (0 flits)
Class 0:
Remaining flits: (0 flits)
Measured flits: (0 flits)
Class 0:
Remaining flits: (0 flits)
Measured flits: (0 flits)
Class 0:
Remaining flits: (0 flits)
Measured flits: (0 flits)
Class 0:
Remaining flits: (0 flits)
Measured flits: (0 flits)
Class 0:
Remaining flits: (0 flits)
Measured flits: (0 flits)
Class 0:
Remaining flits: (0 flits)
Measured flits: (0 flits)
Class 0:
Remaining flits: (0 flits)
Measured flits: (0 flits)
Class 0:
Remaining flits: (0 flits)
Measured flits: (0 flits)
Class 0:
Remaining flits: (0 flits)
Measured flits: (0 flits)
Class 0:
Remaining flits: (0 flits)
Measured flits: (0 flits)
Class 0:
Remaining flits: (0 flits)
Measured flits: (0 flits)
Class 0:
Remaining flits: (0 flits)
Measured flits: (0 flits)
Class 0:
Remaining flits: (0 flits)
Measured flits: (0 flits)
Class 0:
Remaining flits: (0 flits)
Measured flits: (0 flits)
Class 0:
Remaining flits: (0 flits)
Measured flits: (0 flits)
Class 0:
Remaining flits: (0 flits)
Measured flits: (0 flits)
Class 0:
Remaining flits: (0 flits)
Measured flits: (0 flits)
Class 0:
Remaining flits: (0 flits)
Measured flits: (0 flits)
Time taken is 61000 cycles
====== Traffic class 0 ======

Total number of flits generated = 48037, changed lanes = 45672
Overall minimum packet latency = 8 (1 samples)
Overall average packet latency = 42.1089 (1 samples)
Overall maximum packet latency = 236 (1 samples)
Overall minimum network latency = 9 (1 samples)
Overall average network latency = 43.1089 (1 samples)
Overall maximum network latency = 237 (1 samples)
Overall minimum flit latency = 9 (1 samples)
Overall average flit latency = 43.1213 (1 samples)
Overall maximum flit latency = 237 (1 samples)
Overall minimum fragmentation = 0 (1 samples)
Overall average fragmentation = 0 (1 samples)
Overall maximum fragmentation = 0 (1 samples)
Overall minimum injected packet rate = 0.0482 (1 samples)
Overall average injected packet rate = 0.0501896 (1 samples)
Overall maximum injected packet rate = 0.0528667 (1 samples)
Overall minimum accepted packet rate = 0.0476667 (1 samples)
Overall average accepted packet rate = 0.0501646 (1 samples)
Overall maximum accepted packet rate = 0.0529 (1 samples)
Overall minimum injected flit rate = 0.0482 (1 samples)
Overall average injected flit rate = 0.0501896 (1 samples)
Overall maximum injected flit rate = 0.0528667 (1 samples)
Overall minimum accepted flit rate = 0.0476667 (1 samples)
Overall average accepted flit rate = 0.0501646 (1 samples)
Overall maximum accepted flit rate = 0.0529 (1 samples)
Overall average injected packet size = 1 (1 samples)
Overall average accepted packet size = 1 (1 samples)
Overall average hops = 3.48894 (1 samples)
Overall throughput of the network (flits/cycle) = 1.60123
Overall throughput of the network (packets/cycle) = 1.60123
Total run time 44.1097
