make: Nothing to be done for 'all'.
Master: Running timer....
Master: Running SRC....
BEGIN Configuration File: ./examples/mesh88_lat_blackscholes
// $Id$

topology = mesh;
k = 8;
n = 2;

// Routing
routing_function = dor;

// Flow control
num_vcs     = 1;
vc_buf_size = 4;
wait_for_tail_credit = 1;

// Router architecture
vc_allocator = islip;
sw_allocator = islip;
alloc_iters  = 1;

credit_delay   = 1;
routing_delay  = 1;
vc_alloc_delay = 1;
sw_alloc_delay = 1;

input_speedup     = 1;
output_speedup    = 1;
internal_speedup  = 1.0;

vc_busy_when_full = 0;

// Traffic
workload=netrace({/home/sarab/Downloads/BookSim_Benchmark_files/dedup_64c_simmedium.tra.bz2,100000000,1,2,1,1,0);

// Simulation
sim_type = workload;

END Configuration File: ./examples/mesh88_lat_blackscholes
Warming up...
===== Time: 10000 =====
Class 0:
Packets read from trace = 81 of 100000000 (0%)
Future packets = 1
Waiting packets = 0
Stalled packets = 66
Packets pending injection = 1
Packets in flight = 5
Minimum packet latency = 61
Average packet latency = 638.25
Maximum packet latency = 2238
Minimum network latency = 61
Average network latency = 637.375
Maximum network latency = 2234
Slowest packet = 5
Minimum flit latency = 60
Average flit latency = 200.341
Maximum flit latency = 2224
Slowest flit = 17
Minimum fragmentation = 0
Average fragmentation = 535.75
Maximum fragmentation = 2101
Minimum injected packet rate = 0 (at node 0)
Average injected packet rate = 2.03125e-05
Maximum injected packet rate = 0.0003 (at node 14)
Minimum accepted packet rate = 0 (at node 0)
Average accepted packet rate = 1.25e-05
Maximum accepted packet rate = 0.0002 (at node 20)
Minimum injected flit rate = 0 (at node 0)
Average injected flit rate = 8.125e-05
Maximum injected flit rate = 0.0015 (at node 14)
Minimum accepted flit rate = 0 (at node 0)
Average accepted flit rate = 6.875e-05
Maximum accepted flit rate = 0.0014 (at node 58)
Total number of injected packets = 13
Total number of injected flits = 52
Average injected packet length = 4
Total number of accepted packets = 8
Total number of accepted flits = 44
Average accepted packet length = 5.5
Total in-flight flits = 9 (0 measured)
===== Time: 20000 =====
Class 0:
Packets read from trace = 139 of 100000000 (0%)
Future packets = 1
Waiting packets = 0
Stalled packets = 116
Packets pending injection = 5
Packets in flight = 8
Minimum packet latency = 61
Average packet latency = 1066.11
Maximum packet latency = 4489
Minimum network latency = 61
Average network latency = 1065
Maximum network latency = 4486
Slowest packet = 8
Minimum flit latency = 47
Average flit latency = 275.265
Maximum flit latency = 4476
Slowest flit = 32
Minimum fragmentation = 0
Average fragmentation = 963.667
Maximum fragmentation = 4387
Minimum injected packet rate = 0 (at node 0)
Average injected packet rate = 1.25e-05
Maximum injected packet rate = 0.00015 (at node 14)
Minimum accepted packet rate = 0 (at node 0)
Average accepted packet rate = 7.03125e-06
Maximum accepted packet rate = 0.0001 (at node 5)
Minimum injected flit rate = 0 (at node 0)
Average injected flit rate = 5.23438e-05
Maximum injected flit rate = 0.00075 (at node 14)
Minimum accepted flit rate = 0 (at node 0)
Average accepted flit rate = 3.82812e-05
Maximum accepted flit rate = 0.0007 (at node 58)
Total number of injected packets = 16
Total number of injected flits = 67
Average injected packet length = 4.1875
Total number of accepted packets = 9
Total number of accepted flits = 49
Average accepted packet length = 5.44444
Total in-flight flits = 24 (0 measured)
===== Time: 30000 =====
Class 0:
Packets read from trace = 159 of 100000000 (0%)
Future packets = 1
Waiting packets = 0
Stalled packets = 133
Packets pending injection = 7
Packets in flight = 9
Minimum packet latency = 61
Average packet latency = 1066.11
Maximum packet latency = 4489
Minimum network latency = 61
Average network latency = 1065
Maximum network latency = 4486
Slowest packet = 8
Minimum flit latency = 47
Average flit latency = 275.265
Maximum flit latency = 4476
Slowest flit = 32
Minimum fragmentation = 0
Average fragmentation = 963.667
Maximum fragmentation = 4387
Minimum injected packet rate = 0 (at node 0)
Average injected packet rate = 8.85417e-06
Maximum injected packet rate = 0.0001 (at node 14)
Minimum accepted packet rate = 0 (at node 0)
Average accepted packet rate = 4.6875e-06
Maximum accepted packet rate = 6.66667e-05 (at node 5)
Minimum injected flit rate = 0 (at node 0)
Average injected flit rate = 3.69792e-05
Maximum injected flit rate = 0.0005 (at node 14)
Minimum accepted flit rate = 0 (at node 0)
Average accepted flit rate = 2.55208e-05
Maximum accepted flit rate = 0.000466667 (at node 58)
Total number of injected packets = 17
Total number of injected flits = 71
Average injected packet length = 4.17647
Total number of accepted packets = 9
Total number of accepted flits = 49
Average accepted packet length = 5.44444
Total in-flight flits = 29 (0 measured)
Warmup ends after 30000 cycles.
Beginning measurements...
===== Time: 40000 =====
Class 0:
Packets read from trace = 259 of 100000000 (0%)
Future packets = 1
Waiting packets = 0
Stalled packets = 221
Packets pending injection = 17
Packets in flight = 10
Minimum packet latency = nan
Average packet latency = -nan
Maximum packet latency = -nan
Minimum network latency = nan
Average network latency = -nan
Maximum network latency = -nan
Slowest packet = -1
Minimum flit latency = 129
Average flit latency = 4769.8
Maximum flit latency = 23321
Slowest flit = 42
Minimum fragmentation = nan
Average fragmentation = -nan
Maximum fragmentation = -nan
Minimum injected packet rate = 0 (at node 0)
Average injected packet rate = 3.125e-06
Maximum injected packet rate = 0.0001 (at node 14)
Minimum accepted packet rate = 0 (at node 0)
Average accepted packet rate = 1.5625e-06
Maximum accepted packet rate = 0.0001 (at node 58)
Minimum injected flit rate = 0 (at node 0)
Average injected flit rate = 1.40625e-05
Maximum injected flit rate = 0.0005 (at node 14)
Minimum accepted flit rate = 0 (at node 0)
Average accepted flit rate = 7.8125e-06
Maximum accepted flit rate = 0.0005 (at node 58)
Total number of injected packets = 2
Total number of injected flits = 9
Average injected packet length = 4.5
Total number of accepted packets = 1
Total number of accepted flits = 5
Average accepted packet length = 5
Total in-flight flits = 34 (6 measured)
===== Time: 50000 =====
Class 0:
Packets read from trace = 299 of 100000000 (0%)
Future packets = 1
Waiting packets = 0
Stalled packets = 255
Packets pending injection = 20
Packets in flight = 11
Minimum packet latency = 14271
Average packet latency = 14271
Maximum packet latency = 14271
Minimum network latency = 14268
Average network latency = 14268
Maximum network latency = 14268
Slowest packet = 18
Minimum flit latency = 129
Average flit latency = 6835.18
Maximum flit latency = 36552
Slowest flit = 47
Minimum fragmentation = 14135
Average fragmentation = 14135
Maximum fragmentation = 14135
Minimum injected packet rate = 0 (at node 0)
Average injected packet rate = 3.90625e-06
Maximum injected packet rate = 0.0001 (at node 14)
Minimum accepted packet rate = 0 (at node 0)
Average accepted packet rate = 2.34375e-06
Maximum accepted packet rate = 0.0001 (at node 58)
Minimum injected flit rate = 0 (at node 0)
Average injected flit rate = 1.875e-05
Maximum injected flit rate = 0.0005 (at node 14)
Minimum accepted flit rate = 0 (at node 0)
Average accepted flit rate = 8.59375e-06
Maximum accepted flit rate = 0.0005 (at node 58)
Total number of injected packets = 5
Total number of injected flits = 24
Average injected packet length = 4.8
Total number of accepted packets = 3
Total number of accepted flits = 11
Average accepted packet length = 3.66667
Total in-flight flits = 43 (16 measured)
===== Time: 60000 =====
Class 0:
Packets read from trace = 341 of 100000000 (0%)
Future packets = 1
Waiting packets = 0
Stalled packets = 291
Packets pending injection = 25
Packets in flight = 12
Minimum packet latency = 14271
Average packet latency = 14271
Maximum packet latency = 14271
Minimum network latency = 14268
Average network latency = 14268
Maximum network latency = 14268
Slowest packet = 18
Minimum flit latency = 129
Average flit latency = 6835.18
Maximum flit latency = 36552
Slowest flit = 47
Minimum fragmentation = 14135
Average fragmentation = 14135
Maximum fragmentation = 14135
Minimum injected packet rate = 0 (at node 0)
Average injected packet rate = 2.60417e-06
Maximum injected packet rate = 6.66667e-05 (at node 14)
Minimum accepted packet rate = 0 (at node 0)
Average accepted packet rate = 1.5625e-06
Maximum accepted packet rate = 6.66667e-05 (at node 58)
Minimum injected flit rate = 0 (at node 0)
Average injected flit rate = 1.25e-05
Maximum injected flit rate = 0.000333333 (at node 14)
Minimum accepted flit rate = 0 (at node 0)
Average accepted flit rate = 5.72917e-06
Maximum accepted flit rate = 0.000333333 (at node 58)
Total number of injected packets = 5
Total number of injected flits = 24
Average injected packet length = 4.8
Total number of accepted packets = 3
Total number of accepted flits = 11
Average accepted packet length = 3.66667
Total in-flight flits = 48 (21 measured)
===== Time: 70000 =====
Class 0:
Packets read from trace = 409 of 100000000 (0%)
Future packets = 1
Waiting packets = 0
Stalled packets = 347
Packets pending injection = 34
Packets in flight = 13
Minimum packet latency = 176
Average packet latency = 12415.3
Maximum packet latency = 22799
Minimum network latency = 173
Average network latency = 12412.3
Maximum network latency = 22796
Slowest packet = 22
Minimum flit latency = 129
Average flit latency = 4723.43
Maximum flit latency = 36552
Slowest flit = 47
Minimum fragmentation = 40
Average fragmentation = 12279.3
Maximum fragmentation = 22663
Minimum injected packet rate = 0 (at node 0)
Average injected packet rate = 3.125e-06
Maximum injected packet rate = 0.0001 (at node 14)
Minimum accepted packet rate = 0 (at node 0)
Average accepted packet rate = 1.95313e-06
Maximum accepted packet rate = 0.0001 (at node 58)
Minimum injected flit rate = 0 (at node 0)
Average injected flit rate = 1.52344e-05
Maximum injected flit rate = 0.0005 (at node 14)
Minimum accepted flit rate = 0 (at node 0)
Average accepted flit rate = 8.20312e-06
Maximum accepted flit rate = 0.0005 (at node 58)
Total number of injected packets = 8
Total number of injected flits = 39
Average injected packet length = 4.875
Total number of accepted packets = 5
Total number of accepted flits = 21
Average accepted packet length = 4.2
Total in-flight flits = 53 (26 measured)
===== Time: 80000 =====
Class 0:
Packets read from trace = 449 of 100000000 (0%)
Future packets = 1
Waiting packets = 0
Stalled packets = 386
Packets pending injection = 34
Packets in flight = 13
Minimum packet latency = 176
Average packet latency = 11134.5
Maximum packet latency = 22799
Minimum network latency = 173
Average network latency = 11131.2
Maximum network latency = 22796
Slowest packet = 22
Minimum flit latency = 129
Average flit latency = 4115.31
Maximum flit latency = 36552
Slowest flit = 47
Minimum fragmentation = 40
Average fragmentation = 10998.2
Maximum fragmentation = 22663
Minimum injected packet rate = 0 (at node 0)
Average injected packet rate = 2.8125e-06
Maximum injected packet rate = 0.0001 (at node 14)
Minimum accepted packet rate = 0 (at node 0)
Average accepted packet rate = 1.875e-06
Maximum accepted packet rate = 0.0001 (at node 58)
Minimum injected flit rate = 0 (at node 0)
Average injected flit rate = 1.375e-05
Maximum injected flit rate = 0.0005 (at node 14)
Minimum accepted flit rate = 0 (at node 0)
Average accepted flit rate = 8.125e-06
Maximum accepted flit rate = 0.0005 (at node 58)
Total number of injected packets = 9
Total number of injected flits = 44
Average injected packet length = 4.88889
Total number of accepted packets = 6
Total number of accepted flits = 26
Average accepted packet length = 4.33333
Total in-flight flits = 53 (26 measured)
===== Time: 90000 =====
Class 0:
Packets read from trace = 479 of 100000000 (0%)
Future packets = 1
Waiting packets = 0
Stalled packets = 412
Packets pending injection = 38
Packets in flight = 13
Minimum packet latency = 176
Average packet latency = 11134.5
Maximum packet latency = 22799
Minimum network latency = 173
Average network latency = 11131.2
Maximum network latency = 22796
Slowest packet = 22
Minimum flit latency = 129
Average flit latency = 4115.31
Maximum flit latency = 36552
Slowest flit = 47
Minimum fragmentation = 40
Average fragmentation = 10998.2
Maximum fragmentation = 22663
Minimum injected packet rate = 0 (at node 0)
Average injected packet rate = 2.34375e-06
Maximum injected packet rate = 8.33333e-05 (at node 14)
Minimum accepted packet rate = 0 (at node 0)
Average accepted packet rate = 1.5625e-06
Maximum accepted packet rate = 8.33333e-05 (at node 58)
Minimum injected flit rate = 0 (at node 0)
Average injected flit rate = 1.14583e-05
Maximum injected flit rate = 0.000416667 (at node 14)
Minimum accepted flit rate = 0 (at node 0)
Average accepted flit rate = 6.77083e-06
Maximum accepted flit rate = 0.000416667 (at node 58)
Total number of injected packets = 9
Total number of injected flits = 44
Average injected packet length = 4.88889
Total number of accepted packets = 6
Total number of accepted flits = 26
Average accepted packet length = 4.33333
Total in-flight flits = 53 (26 measured)
===== Time: 100000 =====
Class 0:
Packets read from trace = 504 of 100000000 (0%)
Future packets = 1
Waiting packets = 0
Stalled packets = 435
Packets pending injection = 40
Packets in flight = 13
Minimum packet latency = 176
Average packet latency = 11134.5
Maximum packet latency = 22799
Minimum network latency = 173
Average network latency = 11131.2
Maximum network latency = 22796
Slowest packet = 22
Minimum flit latency = 129
Average flit latency = 4115.31
Maximum flit latency = 36552
Slowest flit = 47
Minimum fragmentation = 40
Average fragmentation = 10998.2
Maximum fragmentation = 22663
Minimum injected packet rate = 0 (at node 0)
Average injected packet rate = 2.00893e-06
Maximum injected packet rate = 7.14286e-05 (at node 14)
Minimum accepted packet rate = 0 (at node 0)
Average accepted packet rate = 1.33929e-06
Maximum accepted packet rate = 7.14286e-05 (at node 58)
Minimum injected flit rate = 0 (at node 0)
Average injected flit rate = 9.82143e-06
Maximum injected flit rate = 0.000357143 (at node 14)
Minimum accepted flit rate = 0 (at node 0)
Average accepted flit rate = 5.80357e-06
Maximum accepted flit rate = 0.000357143 (at node 58)
Total number of injected packets = 9
Total number of injected flits = 44
Average injected packet length = 4.88889
Total number of accepted packets = 6
Total number of accepted flits = 26
Average accepted packet length = 4.33333
Total in-flight flits = 53 (26 measured)
===== Time: 110000 =====
Class 0:
Packets read from trace = 595 of 100000000 (0%)
Future packets = 1
Waiting packets = 0
Stalled packets = 514
Packets pending injection = 47
Packets in flight = 13
Minimum packet latency = 147
Average packet latency = 8125.56
Maximum packet latency = 27803
Minimum network latency = 144
Average network latency = 8122.44
Maximum network latency = 27800
Slowest packet = 27
Minimum flit latency = 128
Average flit latency = 2709.1
Maximum flit latency = 36552
Slowest flit = 47
Minimum fragmentation = 11
Average fragmentation = 7989.56
Maximum fragmentation = 27667
Minimum injected packet rate = 0 (at node 0)
Average injected packet rate = 2.73437e-06
Maximum injected packet rate = 0.000125 (at node 14)
Minimum accepted packet rate = 0 (at node 0)
Average accepted packet rate = 2.14844e-06
Maximum accepted packet rate = 0.000125 (at node 58)
Minimum injected flit rate = 0 (at node 0)
Average injected flit rate = 1.34766e-05
Maximum injected flit rate = 0.000625 (at node 14)
Minimum accepted flit rate = 0 (at node 0)
Average accepted flit rate = 9.96094e-06
Maximum accepted flit rate = 0.000625 (at node 58)
Total number of injected packets = 14
Total number of injected flits = 69
Average injected packet length = 4.92857
Total number of accepted packets = 11
Total number of accepted flits = 51
Average accepted packet length = 4.63636
Total in-flight flits = 53 (26 measured)
===== Time: 120000 =====
Class 0:
Packets read from trace = 624 of 100000000 (0%)
Future packets = 1
Waiting packets = 0
Stalled packets = 539
Packets pending injection = 50
Packets in flight = 13
Minimum packet latency = 147
Average packet latency = 8025.7
Maximum packet latency = 27803
Minimum network latency = 144
Average network latency = 8022.6
Maximum network latency = 27800
Slowest packet = 27
Minimum flit latency = 128
Average flit latency = 2603.68
Maximum flit latency = 36552
Slowest flit = 47
Minimum fragmentation = 11
Average fragmentation = 7889.7
Maximum fragmentation = 27667
Minimum injected packet rate = 0 (at node 0)
Average injected packet rate = 2.60417e-06
Maximum injected packet rate = 0.000122222 (at node 14)
Minimum accepted packet rate = 0 (at node 0)
Average accepted packet rate = 2.08333e-06
Maximum accepted packet rate = 0.000122222 (at node 58)
Minimum injected flit rate = 0 (at node 0)
Average injected flit rate = 1.28472e-05
Maximum injected flit rate = 0.000611111 (at node 14)
Minimum accepted flit rate = 0 (at node 0)
Average accepted flit rate = 9.72222e-06
Maximum accepted flit rate = 0.000611111 (at node 58)
Total number of injected packets = 15
Total number of injected flits = 74
Average injected packet length = 4.93333
Total number of accepted packets = 12
Total number of accepted flits = 56
Average accepted packet length = 4.66667
Total in-flight flits = 53 (26 measured)
===== Time: 130000 =====
Class 0:
Packets read from trace = 669 of 100000000 (0%)
Future packets = 1
Waiting packets = 0
Stalled packets = 580
Packets pending injection = 54
Packets in flight = 13
Minimum packet latency = 147
Average packet latency = 8025.7
Maximum packet latency = 27803
Minimum network latency = 144
Average network latency = 8022.6
Maximum network latency = 27800
Slowest packet = 27
Minimum flit latency = 128
Average flit latency = 2603.68
Maximum flit latency = 36552
Slowest flit = 47
Minimum fragmentation = 11
Average fragmentation = 7889.7
Maximum fragmentation = 27667
Minimum injected packet rate = 0 (at node 0)
Average injected packet rate = 2.34375e-06
Maximum injected packet rate = 0.00011 (at node 14)
Minimum accepted packet rate = 0 (at node 0)
Average accepted packet rate = 1.875e-06
Maximum accepted packet rate = 0.00011 (at node 58)
Minimum injected flit rate = 0 (at node 0)
Average injected flit rate = 1.15625e-05
Maximum injected flit rate = 0.00055 (at node 14)
Minimum accepted flit rate = 0 (at node 0)
Average accepted flit rate = 8.75e-06
Maximum accepted flit rate = 0.00055 (at node 58)
Total number of injected packets = 15
Total number of injected flits = 74
Average injected packet length = 4.93333
Total number of accepted packets = 12
Total number of accepted flits = 56
Average accepted packet length = 4.66667
Total in-flight flits = 53 (26 measured)
Completed measurements after 130000 cycles.
Draining remaining packets ...
Class 0:
Remaining flits: 7 48 49 50 51 52 57 58 59 60 [...] (53 flits)
Measured flits: 83 84 85 86 87 88 89 90 91 92 [...] (26 flits)
Class 0:
Remaining flits: 7 48 49 50 51 52 57 58 59 60 [...] (53 flits)
Measured flits: 83 84 85 86 87 88 89 90 91 92 [...] (26 flits)
Class 0:
Remaining flits: 7 48 49 50 51 52 57 58 59 60 [...] (53 flits)
Measured flits: 83 84 85 86 87 88 89 90 91 92 [...] (26 flits)
Class 0:
Remaining flits: 7 48 49 50 51 52 57 58 59 60 [...] (53 flits)
Measured flits: 83 84 85 86 87 88 89 90 91 92 [...] (26 flits)
Class 0:
Remaining flits: 7 48 49 50 51 52 57 58 59 60 [...] (53 flits)
Measured flits: 83 84 85 86 87 88 89 90 91 92 [...] (26 flits)
Class 0:
Remaining flits: 7 48 49 50 51 52 57 58 59 60 [...] (52 flits)
Measured flits: 83 84 85 86 87 88 89 90 91 92 [...] (25 flits)
Class 0:
Remaining flits: 7 48 49 50 51 52 57 58 59 60 [...] (52 flits)
Measured flits: 83 84 85 86 87 88 89 90 91 92 [...] (25 flits)
Class 0:
Remaining flits: 7 48 49 50 51 52 57 58 59 60 [...] (52 flits)
Measured flits: 83 84 85 86 87 88 89 90 91 92 [...] (25 flits)
Class 0:
Remaining flits: 7 48 49 50 51 52 57 58 59 60 [...] (52 flits)
Measured flits: 83 84 85 86 87 88 89 90 91 92 [...] (25 flits)
Class 0:
Remaining flits: 7 48 49 50 51 52 57 58 59 60 [...] (52 flits)
Measured flits: 83 84 85 86 87 88 89 90 91 92 [...] (25 flits)
Class 0:
Remaining flits: 7 48 49 50 51 52 57 58 59 60 [...] (52 flits)
Measured flits: 83 84 85 86 87 88 89 90 91 92 [...] (25 flits)
Class 0:
Remaining flits: 7 48 49 50 51 52 57 58 59 60 [...] (52 flits)
Measured flits: 83 84 85 86 87 88 89 90 91 92 [...] (25 flits)
Class 0:
Remaining flits: 7 48 49 50 51 52 57 58 59 60 [...] (52 flits)
Measured flits: 83 84 85 86 87 88 89 90 91 92 [...] (25 flits)
Class 0:
Remaining flits: 7 48 49 50 51 52 57 58 59 60 [...] (52 flits)
Measured flits: 83 84 85 86 87 88 89 90 91 92 [...] (25 flits)
Class 0:
Remaining flits: 7 48 49 50 51 52 57 58 59 60 [...] (52 flits)
Measured flits: 83 84 85 86 87 88 89 90 91 92 [...] (25 flits)
Class 0:
Remaining flits: 7 48 49 50 51 52 57 58 59 60 [...] (52 flits)
Measured flits: 83 84 85 86 87 88 89 90 91 92 [...] (25 flits)
Class 0:
Remaining flits: 7 48 49 50 51 52 57 58 59 60 [...] (52 flits)
Measured flits: 83 84 85 86 87 88 89 90 91 92 [...] (25 flits)
Class 0:
Remaining flits: 7 48 49 50 51 52 57 58 59 60 [...] (52 flits)
Measured flits: 83 84 85 86 87 88 89 90 91 92 [...] (25 flits)
Class 0:
Remaining flits: 7 48 49 50 51 52 57 58 59 60 [...] (52 flits)
Measured flits: 83 84 85 86 87 88 89 90 91 92 [...] (25 flits)
Class 0:
Remaining flits: 7 48 49 50 51 52 57 58 59 60 [...] (52 flits)
Measured flits: 83 84 85 86 87 88 89 90 91 92 [...] (25 flits)
Class 0:
Remaining flits: 7 48 49 50 51 52 57 58 59 60 [...] (52 flits)
Measured flits: 83 84 85 86 87 88 89 90 91 92 [...] (25 flits)
Class 0:
Remaining flits: 7 48 49 50 51 52 57 58 59 60 [...] (52 flits)
Measured flits: 83 84 85 86 87 88 89 90 91 92 [...] (25 flits)
Class 0:
Remaining flits: 7 48 49 50 51 52 57 58 59 60 [...] (52 flits)
Measured flits: 83 84 85 86 87 88 89 90 91 92 [...] (25 flits)
Class 0:
Remaining flits: 7 48 49 50 51 52 57 58 59 60 [...] (52 flits)
Measured flits: 83 84 85 86 87 88 89 90 91 92 [...] (25 flits)
Class 0:
Remaining flits: 7 48 49 50 51 52 57 58 59 60 [...] (52 flits)
Measured flits: 83 84 85 86 87 88 89 90 91 92 [...] (25 flits)
Class 0:
Remaining flits: 7 48 49 50 51 52 57 58 59 60 [...] (52 flits)
Measured flits: 83 84 85 86 87 88 89 90 91 92 [...] (25 flits)
Class 0:
Remaining flits: 7 48 49 50 51 52 57 58 59 60 [...] (52 flits)
Measured flits: 83 84 85 86 87 88 89 90 91 92 [...] (25 flits)
Class 0:
Remaining flits: 7 48 49 50 51 52 57 58 59 60 [...] (52 flits)
Measured flits: 83 84 85 86 87 88 89 90 91 92 [...] (25 flits)
Class 0:
Remaining flits: 7 48 49 50 51 52 57 58 59 60 [...] (52 flits)
Measured flits: 83 84 85 86 87 88 89 90 91 92 [...] (25 flits)
Class 0:
Remaining flits: 7 48 49 50 51 52 57 58 59 60 [...] (52 flits)
Measured flits: 83 84 85 86 87 88 89 90 91 92 [...] (25 flits)
Class 0:
Remaining flits: 7 48 49 50 51 52 57 58 59 60 [...] (52 flits)
Measured flits: 83 84 85 86 87 88 89 90 91 92 [...] (25 flits)
Class 0:
Remaining flits: 7 48 49 50 51 52 57 58 59 60 [...] (52 flits)
Measured flits: 83 84 85 86 87 88 89 90 91 92 [...] (25 flits)
Class 0:
Remaining flits: 7 48 49 50 51 52 57 58 59 60 [...] (52 flits)
Measured flits: 83 84 85 86 87 88 89 90 91 92 [...] (25 flits)
Class 0:
Remaining flits: 7 48 49 50 51 52 57 58 59 60 [...] (52 flits)
Measured flits: 83 84 85 86 87 88 89 90 91 92 [...] (25 flits)
Class 0:
Remaining flits: 7 48 49 50 51 52 57 58 59 60 [...] (52 flits)
Measured flits: 83 84 85 86 87 88 89 90 91 92 [...] (25 flits)
Class 0:
Remaining flits: 7 48 49 50 51 52 57 58 59 60 [...] (52 flits)
Measured flits: 83 84 85 86 87 88 89 90 91 92 [...] (25 flits)
Class 0:
Remaining flits: 7 48 49 50 51 52 57 58 59 60 [...] (52 flits)
Measured flits: 83 84 85 86 87 88 89 90 91 92 [...] (25 flits)
Class 0:
Remaining flits: 7 48 49 50 51 52 57 58 59 60 [...] (52 flits)
Measured flits: 83 84 85 86 87 88 89 90 91 92 [...] (25 flits)
Class 0:
Remaining flits: 7 48 49 50 51 52 57 58 59 60 [...] (52 flits)
Measured flits: 83 84 85 86 87 88 89 90 91 92 [...] (25 flits)
Class 0:
Remaining flits: 7 48 49 50 51 52 57 58 59 60 [...] (52 flits)
Measured flits: 83 84 85 86 87 88 89 90 91 92 [...] (25 flits)
Class 0:
Remaining flits: 7 48 49 50 51 52 57 58 59 60 [...] (52 flits)
Measured flits: 83 84 85 86 87 88 89 90 91 92 [...] (25 flits)
Class 0:
Remaining flits: 7 48 49 50 51 52 57 58 59 60 [...] (52 flits)
Measured flits: 83 84 85 86 87 88 89 90 91 92 [...] (25 flits)
Class 0:
Remaining flits: 7 48 49 50 51 52 57 58 59 60 [...] (52 flits)
Measured flits: 83 84 85 86 87 88 89 90 91 92 [...] (25 flits)
Class 0:
Remaining flits: 7 48 49 50 51 52 57 58 59 60 [...] (52 flits)
Measured flits: 83 84 85 86 87 88 89 90 91 92 [...] (25 flits)
Class 0:
Remaining flits: 7 48 49 50 51 52 57 58 59 60 [...] (52 flits)
Measured flits: 83 84 85 86 87 88 89 90 91 92 [...] (25 flits)
Class 0:
Remaining flits: 7 48 49 50 51 52 57 58 59 60 [...] (52 flits)
Measured flits: 83 84 85 86 87 88 89 90 91 92 [...] (25 flits)
Class 0:
Remaining flits: 7 48 49 50 51 52 57 58 59 60 [...] (52 flits)
Measured flits: 83 84 85 86 87 88 89 90 91 92 [...] (25 flits)
Class 0:
Remaining flits: 7 48 49 50 51 52 57 58 59 60 [...] (52 flits)
Measured flits: 83 84 85 86 87 88 89 90 91 92 [...] (25 flits)
Class 0:
Remaining flits: 7 48 49 50 51 52 57 58 59 60 [...] (52 flits)
Measured flits: 83 84 85 86 87 88 89 90 91 92 [...] (25 flits)
Class 0:
Remaining flits: 7 48 49 50 51 52 57 58 59 60 [...] (52 flits)
Measured flits: 83 84 85 86 87 88 89 90 91 92 [...] (25 flits)
Class 0:
Remaining flits: 7 48 49 50 51 52 57 58 59 60 [...] (52 flits)
Measured flits: 83 84 85 86 87 88 89 90 91 92 [...] (25 flits)
Class 0:
Remaining flits: 7 48 49 50 51 52 57 58 59 60 [...] (52 flits)
Measured flits: 83 84 85 86 87 88 89 90 91 92 [...] (25 flits)
Class 0:
Remaining flits: 7 48 49 50 51 52 57 58 59 60 [...] (52 flits)
Measured flits: 83 84 85 86 87 88 89 90 91 92 [...] (25 flits)
Class 0:
Remaining flits: 7 48 49 50 51 52 57 58 59 60 [...] (52 flits)
Measured flits: 83 84 85 86 87 88 89 90 91 92 [...] (25 flits)
Class 0:
Remaining flits: 7 48 49 50 51 52 57 58 59 60 [...] (52 flits)
Measured flits: 83 84 85 86 87 88 89 90 91 92 [...] (25 flits)
Class 0:
Remaining flits: 7 48 49 50 51 52 57 58 59 60 [...] (52 flits)
Measured flits: 83 84 85 86 87 88 89 90 91 92 [...] (25 flits)
Class 0:
Remaining flits: 7 48 49 50 51 52 57 58 59 60 [...] (52 flits)
Measured flits: 83 84 85 86 87 88 89 90 91 92 [...] (25 flits)
Class 0:
Remaining flits: 7 48 49 50 51 52 57 58 59 60 [...] (52 flits)
Measured flits: 83 84 85 86 87 88 89 90 91 92 [...] (25 flits)
Class 0:
Remaining flits: 7 48 49 50 51 52 57 58 59 60 [...] (52 flits)
Measured flits: 83 84 85 86 87 88 89 90 91 92 [...] (25 flits)
Class 0:
Remaining flits: 7 48 49 50 51 52 57 58 59 60 [...] (52 flits)
Measured flits: 83 84 85 86 87 88 89 90 91 92 [...] (25 flits)
Class 0:
Remaining flits: 7 48 49 50 51 52 57 58 59 60 [...] (52 flits)
Measured flits: 83 84 85 86 87 88 89 90 91 92 [...] (25 flits)
Class 0:
Remaining flits: 7 48 49 50 51 52 57 58 59 60 [...] (52 flits)
Measured flits: 83 84 85 86 87 88 89 90 91 92 [...] (25 flits)
Class 0:
Remaining flits: 7 48 49 50 51 52 57 58 59 60 [...] (52 flits)
Measured flits: 83 84 85 86 87 88 89 90 91 92 [...] (25 flits)
Class 0:
Remaining flits: 7 48 49 50 51 52 57 58 59 60 [...] (52 flits)
Measured flits: 83 84 85 86 87 88 89 90 91 92 [...] (25 flits)
Class 0:
Remaining flits: 7 48 49 50 51 52 57 58 59 60 [...] (52 flits)
Measured flits: 83 84 85 86 87 88 89 90 91 92 [...] (25 flits)
Class 0:
Remaining flits: 7 48 49 50 51 52 57 58 59 60 [...] (52 flits)
Measured flits: 83 84 85 86 87 88 89 90 91 92 [...] (25 flits)
Class 0:
Remaining flits: 7 48 49 50 51 52 57 58 59 60 [...] (52 flits)
Measured flits: 83 84 85 86 87 88 89 90 91 92 [...] (25 flits)
Class 0:
Remaining flits: 7 48 49 50 51 52 57 58 59 60 [...] (52 flits)
Measured flits: 83 84 85 86 87 88 89 90 91 92 [...] (25 flits)
Class 0:
Remaining flits: 7 48 49 50 51 52 57 58 59 60 [...] (52 flits)
Measured flits: 83 84 85 86 87 88 89 90 91 92 [...] (25 flits)
Class 0:
Remaining flits: 7 48 49 50 51 52 57 58 59 60 [...] (52 flits)
Measured flits: 83 84 85 86 87 88 89 90 91 92 [...] (25 flits)
Class 0:
Remaining flits: 7 48 49 50 51 52 57 58 59 60 [...] (52 flits)
Measured flits: 83 84 85 86 87 88 89 90 91 92 [...] (25 flits)
Class 0:
Remaining flits: 7 48 49 50 51 52 57 58 59 60 [...] (52 flits)
Measured flits: 83 84 85 86 87 88 89 90 91 92 [...] (25 flits)
Class 0:
Remaining flits: 7 48 49 50 51 52 57 58 59 60 [...] (52 flits)
Measured flits: 83 84 85 86 87 88 89 90 91 92 [...] (25 flits)
Class 0:
Remaining flits: 7 48 49 50 51 52 57 58 59 60 [...] (52 flits)
Measured flits: 83 84 85 86 87 88 89 90 91 92 [...] (25 flits)
Class 0:
Remaining flits: 7 48 49 50 51 52 57 58 59 60 [...] (52 flits)
Measured flits: 83 84 85 86 87 88 89 90 91 92 [...] (25 flits)
Class 0:
Remaining flits: 7 48 49 50 51 52 57 58 59 60 [...] (52 flits)
Measured flits: 83 84 85 86 87 88 89 90 91 92 [...] (25 flits)
Class 0:
Remaining flits: 7 48 49 50 51 52 57 58 59 60 [...] (52 flits)
Measured flits: 83 84 85 86 87 88 89 90 91 92 [...] (25 flits)
Class 0:
Remaining flits: 7 48 49 50 51 52 57 58 59 60 [...] (52 flits)
Measured flits: 83 84 85 86 87 88 89 90 91 92 [...] (25 flits)
Class 0:
Remaining flits: 7 48 49 50 51 52 57 58 59 60 [...] (52 flits)
Measured flits: 83 84 85 86 87 88 89 90 91 92 [...] (25 flits)
Class 0:
Remaining flits: 7 48 49 50 51 52 57 58 59 60 [...] (52 flits)
Measured flits: 83 84 85 86 87 88 89 90 91 92 [...] (25 flits)
Class 0:
Remaining flits: 7 48 49 50 51 52 57 58 59 60 [...] (52 flits)
Measured flits: 83 84 85 86 87 88 89 90 91 92 [...] (25 flits)
Class 0:
Remaining flits: 7 48 49 50 51 52 57 58 59 60 [...] (52 flits)
Measured flits: 83 84 85 86 87 88 89 90 91 92 [...] (25 flits)
Class 0:
Remaining flits: 7 48 49 50 51 52 57 58 59 60 [...] (52 flits)
Measured flits: 83 84 85 86 87 88 89 90 91 92 [...] (25 flits)
Class 0:
Remaining flits: 7 48 49 50 51 52 57 58 59 60 [...] (52 flits)
Measured flits: 83 84 85 86 87 88 89 90 91 92 [...] (25 flits)
Class 0:
Remaining flits: 7 48 49 50 51 52 57 58 59 60 [...] (52 flits)
Measured flits: 83 84 85 86 87 88 89 90 91 92 [...] (25 flits)
Class 0:
Remaining flits: 7 48 49 50 51 52 57 58 59 60 [...] (52 flits)
Measured flits: 83 84 85 86 87 88 89 90 91 92 [...] (25 flits)
Class 0:
Remaining flits: 7 48 49 50 51 52 57 58 59 60 [...] (52 flits)
Measured flits: 83 84 85 86 87 88 89 90 91 92 [...] (25 flits)
Class 0:
Remaining flits: 7 48 49 50 51 52 57 58 59 60 [...] (52 flits)
Measured flits: 83 84 85 86 87 88 89 90 91 92 [...] (25 flits)
Class 0:
Remaining flits: 7 48 49 50 51 52 57 58 59 60 [...] (52 flits)
Measured flits: 83 84 85 86 87 88 89 90 91 92 [...] (25 flits)
Class 0:
Remaining flits: 7 48 49 50 51 52 57 58 59 60 [...] (52 flits)
Measured flits: 83 84 85 86 87 88 89 90 91 92 [...] (25 flits)
Class 0:
Remaining flits: 7 48 49 50 51 52 57 58 59 60 [...] (52 flits)
Measured flits: 83 84 85 86 87 88 89 90 91 92 [...] (25 flits)
Class 0:
Remaining flits: 7 48 49 50 51 52 57 58 59 60 [...] (52 flits)
Measured flits: 83 84 85 86 87 88 89 90 91 92 [...] (25 flits)
Class 0:
Remaining flits: 7 48 49 50 51 52 57 58 59 60 [...] (52 flits)
Measured flits: 83 84 85 86 87 88 89 90 91 92 [...] (25 flits)
Class 0:
Remaining flits: 7 48 49 50 51 52 57 58 59 60 [...] (52 flits)
Measured flits: 83 84 85 86 87 88 89 90 91 92 [...] (25 flits)
Class 0:
Remaining flits: 7 48 49 50 51 52 57 58 59 60 [...] (52 flits)
Measured flits: 83 84 85 86 87 88 89 90 91 92 [...] (25 flits)
Class 0:
Remaining flits: 7 48 49 50 51 52 57 58 59 60 [...] (52 flits)
Measured flits: 83 84 85 86 87 88 89 90 91 92 [...] (25 flits)
Class 0:
Remaining flits: 7 48 49 50 51 52 57 58 59 60 [...] (52 flits)
Measured flits: 83 84 85 86 87 88 89 90 91 92 [...] (25 flits)
Class 0:
Remaining flits: 7 48 49 50 51 52 57 58 59 60 [...] (52 flits)
Measured flits: 83 84 85 86 87 88 89 90 91 92 [...] (25 flits)
Class 0:
Remaining flits: 7 48 49 50 51 52 57 58 59 60 [...] (52 flits)
Measured flits: 83 84 85 86 87 88 89 90 91 92 [...] (25 flits)
Class 0:
Remaining flits: 7 48 49 50 51 52 57 58 59 60 [...] (52 flits)
Measured flits: 83 84 85 86 87 88 89 90 91 92 [...] (25 flits)
Class 0:
Remaining flits: 7 48 49 50 51 52 57 58 59 60 [...] (52 flits)
Measured flits: 83 84 85 86 87 88 89 90 91 92 [...] (25 flits)
Time taken is 131000 cycles
====== Traffic class 0 ======

Total number of flits generated = 158, changed lanes = 0
Overall minimum packet latency = 147 (1 samples)
Overall average packet latency = 9035.09 (1 samples)
Overall maximum packet latency = 27803 (1 samples)
Overall minimum network latency = 144 (1 samples)
Overall average network latency = 9032 (1 samples)
Overall maximum network latency = 27800 (1 samples)
Overall minimum flit latency = 128 (1 samples)
Overall average flit latency = 2893.37 (1 samples)
Overall maximum flit latency = 36552 (1 samples)
Overall minimum fragmentation = 11 (1 samples)
Overall average fragmentation = 8899.09 (1 samples)
Overall maximum fragmentation = 27667 (1 samples)
Overall minimum injected packet rate = 0 (1 samples)
Overall average injected packet rate = 2.34375e-06 (1 samples)
Overall maximum injected packet rate = 0.00011 (1 samples)
Overall minimum accepted packet rate = 0 (1 samples)
Overall average accepted packet rate = 1.875e-06 (1 samples)
Overall maximum accepted packet rate = 0.00011 (1 samples)
Overall minimum injected flit rate = 0 (1 samples)
Overall average injected flit rate = 1.15625e-05 (1 samples)
Overall maximum injected flit rate = 0.00055 (1 samples)
Overall minimum accepted flit rate = 0 (1 samples)
Overall average accepted flit rate = 8.75e-06 (1 samples)
Overall maximum accepted flit rate = 0.00055 (1 samples)
Overall average injected packet size = 4.93333 (1 samples)
Overall average accepted packet size = 4.66667 (1 samples)
Overall average hops = 11 (1 samples)
Overall throughput of the network (flits/cycle) = 0.00106
Overall throughput of the network (packets/cycle) = 0.00022
Overall workload runtime = 100000 (1 samples)

The distribution of the source packets of size 1 is: 

Source [0] = 0
Source [1] = 0
Source [2] = 1
Source [3] = 0
Source [4] = 0
Source [5] = 0
Source [6] = 0
Source [7] = 0
Source [8] = 0
Source [9] = 0
Source [10] = 0
Source [11] = 0
Source [12] = 0
Source [13] = 0
Source [14] = 0
Source [15] = 0
Source [16] = 0
Source [17] = 0
Source [18] = 0
Source [19] = 0
Source [20] = 1
Source [21] = 0
Source [22] = 0
Source [23] = 0
Source [24] = 0
Source [25] = 0
Source [26] = 0
Source [27] = 0
Source [28] = 0
Source [29] = 0
Source [30] = 0
Source [31] = 0
Source [32] = 0
Source [33] = 0
Source [34] = 0
Source [35] = 0
Source [36] = 0
Source [37] = 0
Source [38] = 0
Source [39] = 0
Source [40] = 1
Source [41] = 0
Source [42] = 0
Source [43] = 0
Source [44] = 0
Source [45] = 0
Source [46] = 0
Source [47] = 0
Source [48] = 0
Source [49] = 0
Source [50] = 0
Source [51] = 0
Source [52] = 0
Source [53] = 0
Source [54] = 0
Source [55] = 0
Source [56] = 0
Source [57] = 0
Source [58] = 0
Source [59] = 0
Source [60] = 0
Source [61] = 0
Source [62] = 0
Source [63] = 0
The distribution of the source packets of size 5 is: 

Source [0] = 0
Source [1] = 0
Source [2] = 0
Source [3] = 0
Source [4] = 0
Source [5] = 0
Source [6] = 0
Source [7] = 0
Source [8] = 0
Source [9] = 0
Source [10] = 0
Source [11] = 0
Source [12] = 0
Source [13] = 0
Source [14] = 14
Source [15] = 0
Source [16] = 0
Source [17] = 0
Source [18] = 0
Source [19] = 0
Source [20] = 1
Source [21] = 0
Source [22] = 2
Source [23] = 5
Source [24] = 3
Source [25] = 3
Source [26] = 2
Source [27] = 0
Source [28] = 1
Source [29] = 0
Source [30] = 0
Source [31] = 0
Source [32] = 0
Source [33] = 0
Source [34] = 0
Source [35] = 0
Source [36] = 0
Source [37] = 0
Source [38] = 0
Source [39] = 0
Source [40] = 0
Source [41] = 0
Source [42] = 0
Source [43] = 0
Source [44] = 0
Source [45] = 0
Source [46] = 0
Source [47] = 0
Source [48] = 0
Source [49] = 0
Source [50] = 0
Source [51] = 0
Source [52] = 0
Source [53] = 0
Source [54] = 0
Source [55] = 0
Source [56] = 0
Source [57] = 0
Source [58] = 0
Source [59] = 0
Source [60] = 0
Source [61] = 0
Source [62] = 0
Source [63] = 0
The distribution of the dest packets of size 1 is: 

dest [0] = 0
dest [1] = 0
dest [2] = 0
dest [3] = 0
dest [4] = 0
dest [5] = 0
dest [6] = 0
dest [7] = 0
dest [8] = 0
dest [9] = 0
dest [10] = 0
dest [11] = 0
dest [12] = 0
dest [13] = 0
dest [14] = 0
dest [15] = 0
dest [16] = 0
dest [17] = 0
dest [18] = 0
dest [19] = 0
dest [20] = 2
dest [21] = 0
dest [22] = 0
dest [23] = 0
dest [24] = 0
dest [25] = 0
dest [26] = 0
dest [27] = 0
dest [28] = 0
dest [29] = 0
dest [30] = 0
dest [31] = 0
dest [32] = 0
dest [33] = 0
dest [34] = 0
dest [35] = 0
dest [36] = 0
dest [37] = 0
dest [38] = 0
dest [39] = 0
dest [40] = 1
dest [41] = 0
dest [42] = 0
dest [43] = 0
dest [44] = 0
dest [45] = 0
dest [46] = 0
dest [47] = 0
dest [48] = 0
dest [49] = 0
dest [50] = 0
dest [51] = 0
dest [52] = 0
dest [53] = 0
dest [54] = 0
dest [55] = 0
dest [56] = 0
dest [57] = 0
dest [58] = 0
dest [59] = 0
dest [60] = 0
dest [61] = 0
dest [62] = 0
dest [63] = 0
The distribution of the dest packets of size 5 is: 

dest [0] = 0
dest [1] = 0
dest [2] = 4
dest [3] = 0
dest [4] = 0
dest [5] = 3
dest [6] = 0
dest [7] = 0
dest [8] = 0
dest [9] = 0
dest [10] = 0
dest [11] = 0
dest [12] = 0
dest [13] = 0
dest [14] = 0
dest [15] = 0
dest [16] = 2
dest [17] = 0
dest [18] = 0
dest [19] = 0
dest [20] = 0
dest [21] = 0
dest [22] = 0
dest [23] = 0
dest [24] = 0
dest [25] = 0
dest [26] = 0
dest [27] = 0
dest [28] = 0
dest [29] = 0
dest [30] = 0
dest [31] = 0
dest [32] = 0
dest [33] = 0
dest [34] = 0
dest [35] = 0
dest [36] = 0
dest [37] = 0
dest [38] = 0
dest [39] = 0
dest [40] = 1
dest [41] = 0
dest [42] = 0
dest [43] = 0
dest [44] = 0
dest [45] = 0
dest [46] = 0
dest [47] = 0
dest [48] = 0
dest [49] = 0
dest [50] = 0
dest [51] = 0
dest [52] = 0
dest [53] = 0
dest [54] = 0
dest [55] = 0
dest [56] = 0
dest [57] = 0
dest [58] = 16
dest [59] = 0
dest [60] = 0
dest [61] = 5
dest [62] = 0
dest [63] = 0Total run time 366.67
