make: Nothing to be done for 'all'.
Master: Running timer....
Master: Running SRC....
BEGIN Configuration File: ./examples/bitrev
// Topology

topology = mesh;
k = 4;
n = 2;

// Routing
routing_function = dor;

// Flow control
num_vcs     = 1;
vc_buf_size = 5;
wait_for_tail_credit = 0;

// Router architecture
vc_allocator = islip;
sw_allocator = islip;
alloc_iters  = 1;

credit_delay   = 1;
routing_delay  = 1;
vc_alloc_delay = 1;
sw_alloc_delay = 1;

input_speedup     = 1;
output_speedup    = 1;
internal_speedup  = 1.0;

vc_busy_when_full = 0;

// Traffic
traffic = uniform;
packet_size = 5;

// Simulation
sim_type = throughput;

injection_rate = 0.05;

END Configuration File: ./examples/bitrev
===== Time: 50 =====
Class 0:
Minimum packet latency = 19
Average packet latency = 27.5385
Maximum packet latency = 41
Minimum network latency = 20
Average network latency = 26.6923
Maximum network latency = 42
Slowest packet = 0
Minimum flit latency = 15
Average flit latency = 22.2466
Maximum flit latency = 38
Slowest flit = 4
Minimum fragmentation = 1
Average fragmentation = 1.15385
Maximum fragmentation = 3
Minimum injected packet rate = 0.02 (at node 0)
Average injected packet rate = 0.05
Maximum injected packet rate = 0.1 (at node 10)
Minimum accepted packet rate = 0 (at node 0)
Average accepted packet rate = 0.01625
Maximum accepted packet rate = 0.04 (at node 3)
Minimum injected flit rate = 0.1 (at node 0)
Average injected flit rate = 0.24625
Maximum injected flit rate = 0.5 (at node 10)
Minimum accepted flit rate = 0 (at node 1)
Average accepted flit rate = 0.09125
Maximum accepted flit rate = 0.2 (at node 3)
Total number of injected packets = 40
Total number of injected flits = 197
Average injected packet length = 4.925
Total number of accepted packets = 13
Total number of accepted flits = 73
Average accepted packet length = 5.61538
Total in-flight flits = 137 (0 measured)
===== Time: 100 =====
Class 0:
Minimum packet latency = 16
Average packet latency = 39.3077
Maximum packet latency = 76
Minimum network latency = 17
Average network latency = 37.7436
Maximum network latency = 76
Slowest packet = 8
Minimum flit latency = 10
Average flit latency = 30.8249
Maximum flit latency = 72
Slowest flit = 42
Minimum fragmentation = 1
Average fragmentation = 3.89744
Maximum fragmentation = 37
Minimum injected packet rate = 0.02 (at node 0)
Average injected packet rate = 0.044375
Maximum injected packet rate = 0.07 (at node 1)
Minimum accepted packet rate = 0 (at node 0)
Average accepted packet rate = 0.024375
Maximum accepted packet rate = 0.06 (at node 14)
Minimum injected flit rate = 0.1 (at node 0)
Average injected flit rate = 0.2175
Maximum injected flit rate = 0.35 (at node 10)
Minimum accepted flit rate = 0.01 (at node 12)
Average accepted flit rate = 0.135625
Maximum accepted flit rate = 0.3 (at node 14)
Total number of injected packets = 71
Total number of injected flits = 348
Average injected packet length = 4.90141
Total number of accepted packets = 39
Total number of accepted flits = 217
Average accepted packet length = 5.5641
Total in-flight flits = 153 (0 measured)
===== Time: 150 =====
Class 0:
Minimum packet latency = 14
Average packet latency = 55.0833
Maximum packet latency = 86
Minimum network latency = 15
Average network latency = 53.0417
Maximum network latency = 85
Slowest packet = 41
Minimum flit latency = 10
Average flit latency = 45.789
Maximum flit latency = 81
Slowest flit = 206
Minimum fragmentation = 0
Average fragmentation = 8
Maximum fragmentation = 56
Minimum injected packet rate = 0 (at node 0)
Average injected packet rate = 0.03125
Maximum injected packet rate = 0.08 (at node 5)
Minimum accepted packet rate = 0 (at node 1)
Average accepted packet rate = 0.03
Maximum accepted packet rate = 0.1 (at node 7)
Minimum injected flit rate = 0 (at node 0)
Average injected flit rate = 0.1625
Maximum injected flit rate = 0.4 (at node 5)
Minimum accepted flit rate = 0 (at node 1)
Average accepted flit rate = 0.13625
Maximum accepted flit rate = 0.42 (at node 7)
Total number of injected packets = 25
Total number of injected flits = 130
Average injected packet length = 5.2
Total number of accepted packets = 24
Total number of accepted flits = 109
Average accepted packet length = 4.54167
Total in-flight flits = 184 (0 measured)
===== Time: 200 =====
Class 0:
Minimum packet latency = 12
Average packet latency = 19
Maximum packet latency = 25
Minimum network latency = 13
Average network latency = 20
Maximum network latency = 26
Slowest packet = 104
Minimum flit latency = 8
Average flit latency = 33.6441
Maximum flit latency = 78
Slowest flit = 305
Minimum fragmentation = 1
Average fragmentation = 1
Maximum fragmentation = 1
Minimum injected packet rate = 0 (at node 1)
Average injected packet rate = 0.0225
Maximum injected packet rate = 0.08 (at node 12)
Minimum accepted packet rate = 0 (at node 0)
Average accepted packet rate = 0.01125
Maximum accepted packet rate = 0.04 (at node 13)
Minimum injected flit rate = 0 (at node 1)
Average injected flit rate = 0.11
Maximum injected flit rate = 0.36 (at node 12)
Minimum accepted flit rate = 0 (at node 0)
Average accepted flit rate = 0.07375
Maximum accepted flit rate = 0.2 (at node 13)
Total number of injected packets = 18
Total number of injected flits = 88
Average injected packet length = 4.88889
Total number of accepted packets = 9
Total number of accepted flits = 59
Average accepted packet length = 6.55556
Total in-flight flits = 225 (77 measured)
===== Time: 250 =====
Class 0:
Minimum packet latency = 12
Average packet latency = 36.3333
Maximum packet latency = 80
Minimum network latency = 13
Average network latency = 37.3333
Maximum network latency = 81
Slowest packet = 105
Minimum flit latency = 8
Average flit latency = 36.058
Maximum flit latency = 85
Slowest flit = 470
Minimum fragmentation = 1
Average fragmentation = 13.8333
Maximum fragmentation = 45
Minimum injected packet rate = 0 (at node 1)
Average injected packet rate = 0.015625
Maximum injected packet rate = 0.04 (at node 4)
Minimum accepted packet rate = 0 (at node 0)
Average accepted packet rate = 0.0075
Maximum accepted packet rate = 0.02 (at node 9)
Minimum injected flit rate = 0 (at node 1)
Average injected flit rate = 0.076875
Maximum injected flit rate = 0.2 (at node 7)
Minimum accepted flit rate = 0 (at node 0)
Average accepted flit rate = 0.043125
Maximum accepted flit rate = 0.1 (at node 9)
Total number of injected packets = 25
Total number of injected flits = 123
Average injected packet length = 4.92
Total number of accepted packets = 12
Total number of accepted flits = 69
Average accepted packet length = 5.75
Total in-flight flits = 255 (110 measured)
===== Time: 300 =====
Class 0:
Minimum packet latency = 12
Average packet latency = 34.2222
Maximum packet latency = 80
Minimum network latency = 13
Average network latency = 35.2222
Maximum network latency = 81
Slowest packet = 105
Minimum flit latency = 8
Average flit latency = 34.3333
Maximum flit latency = 85
Slowest flit = 470
Minimum fragmentation = 1
Average fragmentation = 9.55556
Maximum fragmentation = 45
Minimum injected packet rate = 0 (at node 1)
Average injected packet rate = 0.01125
Maximum injected packet rate = 0.0266667 (at node 2)
Minimum accepted packet rate = 0 (at node 0)
Average accepted packet rate = 0.00625
Maximum accepted packet rate = 0.02 (at node 15)
Minimum injected flit rate = 0 (at node 1)
Average injected flit rate = 0.0554167
Maximum injected flit rate = 0.133333 (at node 2)
Minimum accepted flit rate = 0 (at node 0)
Average accepted flit rate = 0.035
Maximum accepted flit rate = 0.1 (at node 15)
Total number of injected packets = 27
Total number of injected flits = 133
Average injected packet length = 4.92593
Total number of accepted packets = 15
Total number of accepted flits = 84
Average accepted packet length = 5.6
Total in-flight flits = 250 (105 measured)
===== Time: 350 =====
Class 0:
Minimum packet latency = 12
Average packet latency = 34.2
Maximum packet latency = 80
Minimum network latency = 13
Average network latency = 35.2
Maximum network latency = 81
Slowest packet = 105
Minimum flit latency = 8
Average flit latency = 34.1011
Maximum flit latency = 85
Slowest flit = 470
Minimum fragmentation = 1
Average fragmentation = 8.7
Maximum fragmentation = 45
Minimum injected packet rate = 0 (at node 1)
Average injected packet rate = 0.0096875
Maximum injected packet rate = 0.035 (at node 2)
Minimum accepted packet rate = 0 (at node 0)
Average accepted packet rate = 0.005
Maximum accepted packet rate = 0.015 (at node 9)
Minimum injected flit rate = 0 (at node 1)
Average injected flit rate = 0.0478125
Maximum injected flit rate = 0.175 (at node 2)
Minimum accepted flit rate = 0 (at node 0)
Average accepted flit rate = 0.0278125
Maximum accepted flit rate = 0.075 (at node 9)
Total number of injected packets = 31
Total number of injected flits = 153
Average injected packet length = 4.93548
Total number of accepted packets = 16
Total number of accepted flits = 89
Average accepted packet length = 5.5625
Total in-flight flits = 275 (130 measured)
===== Time: 400 =====
Class 0:
Minimum packet latency = 12
Average packet latency = 34.2
Maximum packet latency = 80
Minimum network latency = 13
Average network latency = 35.2
Maximum network latency = 81
Slowest packet = 105
Minimum flit latency = 8
Average flit latency = 34.1011
Maximum flit latency = 85
Slowest flit = 470
Minimum fragmentation = 1
Average fragmentation = 8.7
Maximum fragmentation = 45
Minimum injected packet rate = 0 (at node 1)
Average injected packet rate = 0.00775
Maximum injected packet rate = 0.028 (at node 2)
Minimum accepted packet rate = 0 (at node 0)
Average accepted packet rate = 0.004
Maximum accepted packet rate = 0.012 (at node 9)
Minimum injected flit rate = 0 (at node 1)
Average injected flit rate = 0.03825
Maximum injected flit rate = 0.14 (at node 2)
Minimum accepted flit rate = 0 (at node 0)
Average accepted flit rate = 0.02225
Maximum accepted flit rate = 0.06 (at node 9)
Total number of injected packets = 31
Total number of injected flits = 153
Average injected packet length = 4.93548
Total number of accepted packets = 16
Total number of accepted flits = 89
Average accepted packet length = 5.5625
Total in-flight flits = 280 (135 measured)
===== Time: 450 =====
Class 0:
Minimum packet latency = 12
Average packet latency = 34.2
Maximum packet latency = 80
Minimum network latency = 13
Average network latency = 35.2
Maximum network latency = 81
Slowest packet = 105
Minimum flit latency = 8
Average flit latency = 34.1011
Maximum flit latency = 85
Slowest flit = 470
Minimum fragmentation = 1
Average fragmentation = 8.7
Maximum fragmentation = 45
Minimum injected packet rate = 0 (at node 1)
Average injected packet rate = 0.00645833
Maximum injected packet rate = 0.0233333 (at node 2)
Minimum accepted packet rate = 0 (at node 0)
Average accepted packet rate = 0.00333333
Maximum accepted packet rate = 0.01 (at node 9)
Minimum injected flit rate = 0 (at node 1)
Average injected flit rate = 0.031875
Maximum injected flit rate = 0.116667 (at node 2)
Minimum accepted flit rate = 0 (at node 0)
Average accepted flit rate = 0.0185417
Maximum accepted flit rate = 0.05 (at node 9)
Total number of injected packets = 31
Total number of injected flits = 153
Average injected packet length = 4.93548
Total number of accepted packets = 16
Total number of accepted flits = 89
Average accepted packet length = 5.5625
Total in-flight flits = 280 (135 measured)
===== Time: 500 =====
Class 0:
Minimum packet latency = 12
Average packet latency = 34.2
Maximum packet latency = 80
Minimum network latency = 13
Average network latency = 35.2
Maximum network latency = 81
Slowest packet = 105
Minimum flit latency = 8
Average flit latency = 34.1011
Maximum flit latency = 85
Slowest flit = 470
Minimum fragmentation = 1
Average fragmentation = 8.7
Maximum fragmentation = 45
Minimum injected packet rate = 0 (at node 1)
Average injected packet rate = 0.00553571
Maximum injected packet rate = 0.02 (at node 2)
Minimum accepted packet rate = 0 (at node 0)
Average accepted packet rate = 0.00285714
Maximum accepted packet rate = 0.00857143 (at node 9)
Minimum injected flit rate = 0 (at node 1)
Average injected flit rate = 0.0273214
Maximum injected flit rate = 0.1 (at node 2)
Minimum accepted flit rate = 0 (at node 0)
Average accepted flit rate = 0.0158929
Maximum accepted flit rate = 0.0428571 (at node 9)
Total number of injected packets = 31
Total number of injected flits = 153
Average injected packet length = 4.93548
Total number of accepted packets = 16
Total number of accepted flits = 89
Average accepted packet length = 5.5625
Total in-flight flits = 280 (135 measured)
Draining remaining packets ...
Class 0:
Remaining flits: 189 220 221 222 223 224 245 246 247 248 [...] (280 flits)
Measured flits: 515 516 517 518 519 530 531 532 533 534 [...] (135 flits)
Class 0:
Remaining flits: 189 220 221 222 223 224 245 246 247 248 [...] (280 flits)
Measured flits: 515 516 517 518 519 530 531 532 533 534 [...] (135 flits)
Class 0:
Remaining flits: 189 220 221 222 223 224 245 246 247 248 [...] (280 flits)
Measured flits: 515 516 517 518 519 530 531 532 533 534 [...] (135 flits)
Class 0:
Remaining flits: 189 220 221 222 223 224 245 246 247 248 [...] (280 flits)
Measured flits: 515 516 517 518 519 530 531 532 533 534 [...] (135 flits)
Class 0:
Remaining flits: 189 220 221 222 223 224 245 246 247 248 [...] (280 flits)
Measured flits: 515 516 517 518 519 530 531 532 533 534 [...] (135 flits)
Class 0:
Remaining flits: 189 220 221 222 223 224 245 246 247 248 [...] (280 flits)
Measured flits: 515 516 517 518 519 530 531 532 533 534 [...] (135 flits)
Class 0:
Remaining flits: 189 220 221 222 223 224 245 246 247 248 [...] (280 flits)
Measured flits: 515 516 517 518 519 530 531 532 533 534 [...] (135 flits)
Class 0:
Remaining flits: 189 220 221 222 223 224 245 246 247 248 [...] (280 flits)
Measured flits: 515 516 517 518 519 530 531 532 533 534 [...] (135 flits)
Class 0:
Remaining flits: 189 220 221 222 223 224 245 246 247 248 [...] (280 flits)
Measured flits: 515 516 517 518 519 530 531 532 533 534 [...] (135 flits)
Class 0:
Remaining flits: 189 220 221 222 223 224 245 246 247 248 [...] (280 flits)
Measured flits: 515 516 517 518 519 530 531 532 533 534 [...] (135 flits)
Class 0:
Remaining flits: 189 220 221 222 223 224 245 246 247 248 [...] (280 flits)
Measured flits: 515 516 517 518 519 530 531 532 533 534 [...] (135 flits)
Class 0:
Remaining flits: 189 220 221 222 223 224 245 246 247 248 [...] (280 flits)
Measured flits: 515 516 517 518 519 530 531 532 533 534 [...] (135 flits)
Class 0:
Remaining flits: 189 220 221 222 223 224 245 246 247 248 [...] (280 flits)
Measured flits: 515 516 517 518 519 530 531 532 533 534 [...] (135 flits)
Class 0:
Remaining flits: 189 220 221 222 223 224 245 246 247 248 [...] (280 flits)
Measured flits: 515 516 517 518 519 530 531 532 533 534 [...] (135 flits)
Class 0:
Remaining flits: 189 220 221 222 223 224 245 246 247 248 [...] (280 flits)
Measured flits: 515 516 517 518 519 530 531 532 533 534 [...] (135 flits)
Class 0:
Remaining flits: 189 220 221 222 223 224 245 246 247 248 [...] (280 flits)
Measured flits: 515 516 517 518 519 530 531 532 533 534 [...] (135 flits)
Class 0:
Remaining flits: 189 220 221 222 223 224 245 246 247 248 [...] (280 flits)
Measured flits: 515 516 517 518 519 530 531 532 533 534 [...] (135 flits)
Class 0:
Remaining flits: 189 220 221 222 223 224 245 246 247 248 [...] (280 flits)
Measured flits: 515 516 517 518 519 530 531 532 533 534 [...] (135 flits)
Class 0:
Remaining flits: 189 220 221 222 223 224 245 246 247 248 [...] (280 flits)
Measured flits: 515 516 517 518 519 530 531 532 533 534 [...] (135 flits)
Class 0:
Remaining flits: 189 220 221 222 223 224 245 246 247 248 [...] (280 flits)
Measured flits: 515 516 517 518 519 530 531 532 533 534 [...] (135 flits)
Class 0:
Remaining flits: 189 220 221 222 223 224 245 246 247 248 [...] (280 flits)
Measured flits: 515 516 517 518 519 530 531 532 533 534 [...] (135 flits)
Class 0:
Remaining flits: 189 220 221 222 223 224 245 246 247 248 [...] (280 flits)
Measured flits: 515 516 517 518 519 530 531 532 533 534 [...] (135 flits)
Class 0:
Remaining flits: 189 220 221 222 223 224 245 246 247 248 [...] (280 flits)
Measured flits: 515 516 517 518 519 530 531 532 533 534 [...] (135 flits)
Class 0:
Remaining flits: 189 220 221 222 223 224 245 246 247 248 [...] (280 flits)
Measured flits: 515 516 517 518 519 530 531 532 533 534 [...] (135 flits)
Class 0:
Remaining flits: 189 220 221 222 223 224 245 246 247 248 [...] (280 flits)
Measured flits: 515 516 517 518 519 530 531 532 533 534 [...] (135 flits)
Class 0:
Remaining flits: 189 220 221 222 223 224 245 246 247 248 [...] (280 flits)
Measured flits: 515 516 517 518 519 530 531 532 533 534 [...] (135 flits)
Class 0:
Remaining flits: 189 220 221 222 223 224 245 246 247 248 [...] (280 flits)
Measured flits: 515 516 517 518 519 530 531 532 533 534 [...] (135 flits)
Class 0:
Remaining flits: 189 220 221 222 223 224 245 246 247 248 [...] (280 flits)
Measured flits: 515 516 517 518 519 530 531 532 533 534 [...] (135 flits)
Class 0:
Remaining flits: 189 220 221 222 223 224 245 246 247 248 [...] (280 flits)
Measured flits: 515 516 517 518 519 530 531 532 533 534 [...] (135 flits)
Class 0:
Remaining flits: 189 220 221 222 223 224 245 246 247 248 [...] (280 flits)
Measured flits: 515 516 517 518 519 530 531 532 533 534 [...] (135 flits)
Class 0:
Remaining flits: 189 220 221 222 223 224 245 246 247 248 [...] (280 flits)
Measured flits: 515 516 517 518 519 530 531 532 533 534 [...] (135 flits)
Class 0:
Remaining flits: 189 220 221 222 223 224 245 246 247 248 [...] (280 flits)
Measured flits: 515 516 517 518 519 530 531 532 533 534 [...] (135 flits)
Class 0:
Remaining flits: 189 220 221 222 223 224 245 246 247 248 [...] (280 flits)
Measured flits: 515 516 517 518 519 530 531 532 533 534 [...] (135 flits)
Class 0:
Remaining flits: 189 220 221 222 223 224 245 246 247 248 [...] (280 flits)
Measured flits: 515 516 517 518 519 530 531 532 533 534 [...] (135 flits)
Class 0:
Remaining flits: 189 220 221 222 223 224 245 246 247 248 [...] (280 flits)
Measured flits: 515 516 517 518 519 530 531 532 533 534 [...] (135 flits)
Class 0:
Remaining flits: 189 220 221 222 223 224 245 246 247 248 [...] (280 flits)
Measured flits: 515 516 517 518 519 530 531 532 533 534 [...] (135 flits)
Class 0:
Remaining flits: 189 220 221 222 223 224 245 246 247 248 [...] (280 flits)
Measured flits: 515 516 517 518 519 530 531 532 533 534 [...] (135 flits)
Class 0:
Remaining flits: 189 220 221 222 223 224 245 246 247 248 [...] (280 flits)
Measured flits: 515 516 517 518 519 530 531 532 533 534 [...] (135 flits)
Class 0:
Remaining flits: 189 220 221 222 223 224 245 246 247 248 [...] (280 flits)
Measured flits: 515 516 517 518 519 530 531 532 533 534 [...] (135 flits)
Class 0:
Remaining flits: 189 220 221 222 223 224 245 246 247 248 [...] (280 flits)
Measured flits: 515 516 517 518 519 530 531 532 533 534 [...] (135 flits)
Class 0:
Remaining flits: 189 220 221 222 223 224 245 246 247 248 [...] (280 flits)
Measured flits: 515 516 517 518 519 530 531 532 533 534 [...] (135 flits)
Class 0:
Remaining flits: 189 220 221 222 223 224 245 246 247 248 [...] (280 flits)
Measured flits: 515 516 517 518 519 530 531 532 533 534 [...] (135 flits)
Class 0:
Remaining flits: 189 220 221 222 223 224 245 246 247 248 [...] (280 flits)
Measured flits: 515 516 517 518 519 530 531 532 533 534 [...] (135 flits)
Class 0:
Remaining flits: 189 220 221 222 223 224 245 246 247 248 [...] (280 flits)
Measured flits: 515 516 517 518 519 530 531 532 533 534 [...] (135 flits)
Class 0:
Remaining flits: 189 220 221 222 223 224 245 246 247 248 [...] (280 flits)
Measured flits: 515 516 517 518 519 530 531 532 533 534 [...] (135 flits)
Class 0:
Remaining flits: 189 220 221 222 223 224 245 246 247 248 [...] (280 flits)
Measured flits: 515 516 517 518 519 530 531 532 533 534 [...] (135 flits)
Class 0:
Remaining flits: 189 220 221 222 223 224 245 246 247 248 [...] (280 flits)
Measured flits: 515 516 517 518 519 530 531 532 533 534 [...] (135 flits)
Class 0:
Remaining flits: 189 220 221 222 223 224 245 246 247 248 [...] (280 flits)
Measured flits: 515 516 517 518 519 530 531 532 533 534 [...] (135 flits)
Class 0:
Remaining flits: 189 220 221 222 223 224 245 246 247 248 [...] (280 flits)
Measured flits: 515 516 517 518 519 530 531 532 533 534 [...] (135 flits)
Class 0:
Remaining flits: 189 220 221 222 223 224 245 246 247 248 [...] (280 flits)
Measured flits: 515 516 517 518 519 530 531 532 533 534 [...] (135 flits)
Class 0:
Remaining flits: 189 220 221 222 223 224 245 246 247 248 [...] (280 flits)
Measured flits: 515 516 517 518 519 530 531 532 533 534 [...] (135 flits)
Class 0:
Remaining flits: 189 220 221 222 223 224 245 246 247 248 [...] (280 flits)
Measured flits: 515 516 517 518 519 530 531 532 533 534 [...] (135 flits)
Class 0:
Remaining flits: 189 220 221 222 223 224 245 246 247 248 [...] (280 flits)
Measured flits: 515 516 517 518 519 530 531 532 533 534 [...] (135 flits)
Class 0:
Remaining flits: 189 220 221 222 223 224 245 246 247 248 [...] (280 flits)
Measured flits: 515 516 517 518 519 530 531 532 533 534 [...] (135 flits)
Class 0:
Remaining flits: 189 220 221 222 223 224 245 246 247 248 [...] (280 flits)
Measured flits: 515 516 517 518 519 530 531 532 533 534 [...] (135 flits)
Class 0:
Remaining flits: 189 220 221 222 223 224 245 246 247 248 [...] (280 flits)
Measured flits: 515 516 517 518 519 530 531 532 533 534 [...] (135 flits)
Class 0:
Remaining flits: 189 220 221 222 223 224 245 246 247 248 [...] (280 flits)
Measured flits: 515 516 517 518 519 530 531 532 533 534 [...] (135 flits)
Class 0:
Remaining flits: 189 220 221 222 223 224 245 246 247 248 [...] (280 flits)
Measured flits: 515 516 517 518 519 530 531 532 533 534 [...] (135 flits)
Class 0:
Remaining flits: 189 220 221 222 223 224 245 246 247 248 [...] (280 flits)
Measured flits: 515 516 517 518 519 530 531 532 533 534 [...] (135 flits)
Class 0:
Remaining flits: 189 220 221 222 223 224 245 246 247 248 [...] (280 flits)
Measured flits: 515 516 517 518 519 530 531 532 533 534 [...] (135 flits)
Class 0:
Remaining flits: 189 220 221 222 223 224 245 246 247 248 [...] (280 flits)
Measured flits: 515 516 517 518 519 530 531 532 533 534 [...] (135 flits)
Class 0:
Remaining flits: 189 220 221 222 223 224 245 246 247 248 [...] (280 flits)
Measured flits: 515 516 517 518 519 530 531 532 533 534 [...] (135 flits)
Class 0:
Remaining flits: 189 220 221 222 223 224 245 246 247 248 [...] (280 flits)
Measured flits: 515 516 517 518 519 530 531 532 533 534 [...] (135 flits)
Class 0:
Remaining flits: 189 220 221 222 223 224 245 246 247 248 [...] (280 flits)
Measured flits: 515 516 517 518 519 530 531 532 533 534 [...] (135 flits)
Class 0:
Remaining flits: 189 220 221 222 223 224 245 246 247 248 [...] (280 flits)
Measured flits: 515 516 517 518 519 530 531 532 533 534 [...] (135 flits)
Class 0:
Remaining flits: 189 220 221 222 223 224 245 246 247 248 [...] (280 flits)
Measured flits: 515 516 517 518 519 530 531 532 533 534 [...] (135 flits)
Class 0:
Remaining flits: 189 220 221 222 223 224 245 246 247 248 [...] (280 flits)
Measured flits: 515 516 517 518 519 530 531 532 533 534 [...] (135 flits)
Class 0:
Remaining flits: 189 220 221 222 223 224 245 246 247 248 [...] (280 flits)
Measured flits: 515 516 517 518 519 530 531 532 533 534 [...] (135 flits)
Class 0:
Remaining flits: 189 220 221 222 223 224 245 246 247 248 [...] (280 flits)
Measured flits: 515 516 517 518 519 530 531 532 533 534 [...] (135 flits)
Class 0:
Remaining flits: 189 220 221 222 223 224 245 246 247 248 [...] (280 flits)
Measured flits: 515 516 517 518 519 530 531 532 533 534 [...] (135 flits)
Class 0:
Remaining flits: 189 220 221 222 223 224 245 246 247 248 [...] (280 flits)
Measured flits: 515 516 517 518 519 530 531 532 533 534 [...] (135 flits)
Class 0:
Remaining flits: 189 220 221 222 223 224 245 246 247 248 [...] (280 flits)
Measured flits: 515 516 517 518 519 530 531 532 533 534 [...] (135 flits)
Class 0:
Remaining flits: 189 220 221 222 223 224 245 246 247 248 [...] (280 flits)
Measured flits: 515 516 517 518 519 530 531 532 533 534 [...] (135 flits)
Class 0:
Remaining flits: 189 220 221 222 223 224 245 246 247 248 [...] (280 flits)
Measured flits: 515 516 517 518 519 530 531 532 533 534 [...] (135 flits)
Class 0:
Remaining flits: 189 220 221 222 223 224 245 246 247 248 [...] (280 flits)
Measured flits: 515 516 517 518 519 530 531 532 533 534 [...] (135 flits)
Class 0:
Remaining flits: 189 220 221 222 223 224 245 246 247 248 [...] (280 flits)
Measured flits: 515 516 517 518 519 530 531 532 533 534 [...] (135 flits)
Class 0:
Remaining flits: 189 220 221 222 223 224 245 246 247 248 [...] (280 flits)
Measured flits: 515 516 517 518 519 530 531 532 533 534 [...] (135 flits)
Class 0:
Remaining flits: 189 220 221 222 223 224 245 246 247 248 [...] (280 flits)
Measured flits: 515 516 517 518 519 530 531 532 533 534 [...] (135 flits)
Class 0:
Remaining flits: 189 220 221 222 223 224 245 246 247 248 [...] (280 flits)
Measured flits: 515 516 517 518 519 530 531 532 533 534 [...] (135 flits)
Class 0:
Remaining flits: 189 220 221 222 223 224 245 246 247 248 [...] (280 flits)
Measured flits: 515 516 517 518 519 530 531 532 533 534 [...] (135 flits)
Class 0:
Remaining flits: 189 220 221 222 223 224 245 246 247 248 [...] (280 flits)
Measured flits: 515 516 517 518 519 530 531 532 533 534 [...] (135 flits)
Class 0:
Remaining flits: 189 220 221 222 223 224 245 246 247 248 [...] (280 flits)
Measured flits: 515 516 517 518 519 530 531 532 533 534 [...] (135 flits)
Class 0:
Remaining flits: 189 220 221 222 223 224 245 246 247 248 [...] (280 flits)
Measured flits: 515 516 517 518 519 530 531 532 533 534 [...] (135 flits)
Class 0:
Remaining flits: 189 220 221 222 223 224 245 246 247 248 [...] (280 flits)
Measured flits: 515 516 517 518 519 530 531 532 533 534 [...] (135 flits)
Class 0:
Remaining flits: 189 220 221 222 223 224 245 246 247 248 [...] (280 flits)
Measured flits: 515 516 517 518 519 530 531 532 533 534 [...] (135 flits)
Class 0:
Remaining flits: 189 220 221 222 223 224 245 246 247 248 [...] (280 flits)
Measured flits: 515 516 517 518 519 530 531 532 533 534 [...] (135 flits)
Class 0:
Remaining flits: 189 220 221 222 223 224 245 246 247 248 [...] (280 flits)
Measured flits: 515 516 517 518 519 530 531 532 533 534 [...] (135 flits)
Class 0:
Remaining flits: 189 220 221 222 223 224 245 246 247 248 [...] (280 flits)
Measured flits: 515 516 517 518 519 530 531 532 533 534 [...] (135 flits)
Class 0:
Remaining flits: 189 220 221 222 223 224 245 246 247 248 [...] (280 flits)
Measured flits: 515 516 517 518 519 530 531 532 533 534 [...] (135 flits)
Class 0:
Remaining flits: 189 220 221 222 223 224 245 246 247 248 [...] (280 flits)
Measured flits: 515 516 517 518 519 530 531 532 533 534 [...] (135 flits)
Class 0:
Remaining flits: 189 220 221 222 223 224 245 246 247 248 [...] (280 flits)
Measured flits: 515 516 517 518 519 530 531 532 533 534 [...] (135 flits)
Class 0:
Remaining flits: 189 220 221 222 223 224 245 246 247 248 [...] (280 flits)
Measured flits: 515 516 517 518 519 530 531 532 533 534 [...] (135 flits)
Class 0:
Remaining flits: 189 220 221 222 223 224 245 246 247 248 [...] (280 flits)
Measured flits: 515 516 517 518 519 530 531 532 533 534 [...] (135 flits)
Class 0:
Remaining flits: 189 220 221 222 223 224 245 246 247 248 [...] (280 flits)
Measured flits: 515 516 517 518 519 530 531 532 533 534 [...] (135 flits)
Class 0:
Remaining flits: 189 220 221 222 223 224 245 246 247 248 [...] (280 flits)
Measured flits: 515 516 517 518 519 530 531 532 533 534 [...] (135 flits)
Class 0:
Remaining flits: 189 220 221 222 223 224 245 246 247 248 [...] (280 flits)
Measured flits: 515 516 517 518 519 530 531 532 533 534 [...] (135 flits)
Class 0:
Remaining flits: 189 220 221 222 223 224 245 246 247 248 [...] (280 flits)
Measured flits: 515 516 517 518 519 530 531 532 533 534 [...] (135 flits)
Class 0:
Remaining flits: 189 220 221 222 223 224 245 246 247 248 [...] (280 flits)
Measured flits: 515 516 517 518 519 530 531 532 533 534 [...] (135 flits)
Class 0:
Remaining flits: 189 220 221 222 223 224 245 246 247 248 [...] (280 flits)
Measured flits: 515 516 517 518 519 530 531 532 533 534 [...] (135 flits)
Class 0:
Remaining flits: 189 220 221 222 223 224 245 246 247 248 [...] (280 flits)
Measured flits: 515 516 517 518 519 530 531 532 533 534 [...] (135 flits)
Class 0:
Remaining flits: 189 220 221 222 223 224 245 246 247 248 [...] (280 flits)
Measured flits: 515 516 517 518 519 530 531 532 533 534 [...] (135 flits)
Time taken is 1500 cycles
====== Traffic class 0 ======

Total number of flits generated = 695, changed lanes = 0
Overall minimum packet latency = 12 (1 samples)
Overall average packet latency = 34.2 (1 samples)
Overall maximum packet latency = 80 (1 samples)
Overall minimum network latency = 13 (1 samples)
Overall average network latency = 35.2 (1 samples)
Overall maximum network latency = 81 (1 samples)
Overall minimum flit latency = 8 (1 samples)
Overall average flit latency = 34.1011 (1 samples)
Overall maximum flit latency = 85 (1 samples)
Overall minimum fragmentation = 1 (1 samples)
Overall average fragmentation = 8.7 (1 samples)
Overall maximum fragmentation = 45 (1 samples)
Overall minimum injected packet rate = 0 (1 samples)
Overall average injected packet rate = 0.00553571 (1 samples)
Overall maximum injected packet rate = 0.02 (1 samples)
Overall minimum accepted packet rate = 0 (1 samples)
Overall average accepted packet rate = 0.00285714 (1 samples)
Overall maximum accepted packet rate = 0.00857143 (1 samples)
Overall minimum injected flit rate = 0 (1 samples)
Overall average injected flit rate = 0.0273214 (1 samples)
Overall maximum injected flit rate = 0.1 (1 samples)
Overall minimum accepted flit rate = 0 (1 samples)
Overall average accepted flit rate = 0.0158929 (1 samples)
Overall maximum accepted flit rate = 0.0428571 (1 samples)
Overall average injected packet size = 4.93548 (1 samples)
Overall average accepted packet size = 5.5625 (1 samples)
Overall average hops = 2.8 (1 samples)
Overall throughput of the network (flits/cycle) = 1.18571
Overall throughput of the network (packets/cycle) = 0.225714
Total run time 29.9238
