make: Nothing to be done for 'all'.
Master: Running timer....
Master: Running SRC....
BEGIN Configuration File: ./examples/bitrev
// Topology

topology = mesh;
k = 4;
n = 2;

// Routing
routing_function = dor;

// Flow control
num_vcs     = 4;
vc_buf_size = 4;
wait_for_tail_credit = 0;

// Router architecture
vc_allocator = islip;
sw_allocator = islip;
alloc_iters  = 1;

credit_delay   = 1;
routing_delay  = 1;
vc_alloc_delay = 1;
sw_alloc_delay = 1;

input_speedup     = 1;
output_speedup    = 1;
internal_speedup  = 1.0;

vc_busy_when_full = 0;

// Traffic
traffic = uniform;
packet_size = 1;

// Simulation
sim_type = throughput;

injection_rate = 0.15;

END Configuration File: ./examples/bitrev
===== Time: 1000 =====
Class 0:
Minimum packet latency = 7
Average packet latency = 48.9376
Maximum packet latency = 161
Minimum network latency = 8
Average network latency = 49.9376
Maximum network latency = 162
Slowest packet = 1395
Minimum flit latency = 8
Average flit latency = 49.9376
Maximum flit latency = 162
Slowest flit = 1395
Minimum fragmentation = 0
Average fragmentation = 0
Maximum fragmentation = 0
Minimum injected packet rate = 0.13 (at node 9)
Average injected packet rate = 0.14675
Maximum injected packet rate = 0.162 (at node 2)
Minimum accepted packet rate = 0.119 (at node 14)
Average accepted packet rate = 0.138313
Maximum accepted packet rate = 0.151 (at node 4)
Minimum injected flit rate = 0.13 (at node 9)
Average injected flit rate = 0.14675
Maximum injected flit rate = 0.162 (at node 2)
Minimum accepted flit rate = 0.119 (at node 14)
Average accepted flit rate = 0.138313
Maximum accepted flit rate = 0.151 (at node 4)
Total number of injected packets = 2348
Total number of injected flits = 2348
Average injected packet length = 1
Total number of accepted packets = 2213
Total number of accepted flits = 2213
Average accepted packet length = 1
Total in-flight flits = 135 (0 measured)
===== Time: 2000 =====
Class 0:
Minimum packet latency = 7
Average packet latency = 53.1154
Maximum packet latency = 263
Minimum network latency = 8
Average network latency = 54.1154
Maximum network latency = 264
Slowest packet = 3720
Minimum flit latency = 8
Average flit latency = 54.1154
Maximum flit latency = 264
Slowest flit = 3720
Minimum fragmentation = 0
Average fragmentation = 0
Maximum fragmentation = 0
Minimum injected packet rate = 0.1275 (at node 7)
Average injected packet rate = 0.145875
Maximum injected packet rate = 0.1545 (at node 3)
Minimum accepted packet rate = 0.13 (at node 4)
Average accepted packet rate = 0.141594
Maximum accepted packet rate = 0.1565 (at node 8)
Minimum injected flit rate = 0.1275 (at node 7)
Average injected flit rate = 0.145875
Maximum injected flit rate = 0.1545 (at node 3)
Minimum accepted flit rate = 0.13 (at node 4)
Average accepted flit rate = 0.141594
Maximum accepted flit rate = 0.1565 (at node 8)
Total number of injected packets = 4668
Total number of injected flits = 4668
Average injected packet length = 1
Total number of accepted packets = 4531
Total number of accepted flits = 4531
Average accepted packet length = 1
Total in-flight flits = 137 (0 measured)
===== Time: 3000 =====
Class 0:
Minimum packet latency = 7
Average packet latency = 55.9737
Maximum packet latency = 195
Minimum network latency = 8
Average network latency = 56.9491
Maximum network latency = 196
Slowest packet = 5732
Minimum flit latency = 8
Average flit latency = 56.9491
Maximum flit latency = 196
Slowest flit = 5732
Minimum fragmentation = 0
Average fragmentation = 0
Maximum fragmentation = 0
Minimum injected packet rate = 0.139 (at node 2)
Average injected packet rate = 0.149562
Maximum injected packet rate = 0.163 (at node 12)
Minimum accepted packet rate = 0.136 (at node 4)
Average accepted packet rate = 0.149812
Maximum accepted packet rate = 0.176 (at node 2)
Minimum injected flit rate = 0.139 (at node 2)
Average injected flit rate = 0.149562
Maximum injected flit rate = 0.163 (at node 12)
Minimum accepted flit rate = 0.136 (at node 4)
Average accepted flit rate = 0.149812
Maximum accepted flit rate = 0.176 (at node 2)
Total number of injected packets = 2393
Total number of injected flits = 2393
Average injected packet length = 1
Total number of accepted packets = 2397
Total number of accepted flits = 2397
Average accepted packet length = 1
Total in-flight flits = 133 (0 measured)
===== Time: 4000 =====
Class 0:
Minimum packet latency = 7
Average packet latency = 58.1535
Maximum packet latency = 228
Minimum network latency = 8
Average network latency = 59.0612
Maximum network latency = 229
Slowest packet = 8366
Minimum flit latency = 8
Average flit latency = 59.5006
Maximum flit latency = 229
Slowest flit = 8366
Minimum fragmentation = 0
Average fragmentation = 0
Maximum fragmentation = 0
Minimum injected packet rate = 0.124 (at node 14)
Average injected packet rate = 0.149875
Maximum injected packet rate = 0.171 (at node 15)
Minimum accepted packet rate = 0.126 (at node 4)
Average accepted packet rate = 0.147187
Maximum accepted packet rate = 0.168 (at node 7)
Minimum injected flit rate = 0.124 (at node 14)
Average injected flit rate = 0.149875
Maximum injected flit rate = 0.171 (at node 15)
Minimum accepted flit rate = 0.126 (at node 4)
Average accepted flit rate = 0.147187
Maximum accepted flit rate = 0.168 (at node 7)
Total number of injected packets = 2398
Total number of injected flits = 2398
Average injected packet length = 1
Total number of accepted packets = 2355
Total number of accepted flits = 2355
Average accepted packet length = 1
Total in-flight flits = 178 (178 measured)
===== Time: 5000 =====
Class 0:
Minimum packet latency = 7
Average packet latency = 57.8054
Maximum packet latency = 228
Minimum network latency = 8
Average network latency = 58.7342
Maximum network latency = 229
Slowest packet = 8366
Minimum flit latency = 8
Average flit latency = 58.9604
Maximum flit latency = 229
Slowest flit = 8366
Minimum fragmentation = 0
Average fragmentation = 0
Maximum fragmentation = 0
Minimum injected packet rate = 0.1395 (at node 14)
Average injected packet rate = 0.148781
Maximum injected packet rate = 0.1625 (at node 15)
Minimum accepted packet rate = 0.1325 (at node 2)
Average accepted packet rate = 0.149
Maximum accepted packet rate = 0.1645 (at node 7)
Minimum injected flit rate = 0.1395 (at node 14)
Average injected flit rate = 0.148781
Maximum injected flit rate = 0.1625 (at node 15)
Minimum accepted flit rate = 0.1325 (at node 2)
Average accepted flit rate = 0.149
Maximum accepted flit rate = 0.1645 (at node 7)
Total number of injected packets = 4761
Total number of injected flits = 4761
Average injected packet length = 1
Total number of accepted packets = 4768
Total number of accepted flits = 4768
Average accepted packet length = 1
Total in-flight flits = 126 (126 measured)
===== Time: 6000 =====
Class 0:
Minimum packet latency = 7
Average packet latency = 57.7698
Maximum packet latency = 229
Minimum network latency = 8
Average network latency = 58.7229
Maximum network latency = 230
Slowest packet = 13597
Minimum flit latency = 8
Average flit latency = 58.8736
Maximum flit latency = 230
Slowest flit = 13597
Minimum fragmentation = 0
Average fragmentation = 0
Maximum fragmentation = 0
Minimum injected packet rate = 0.141667 (at node 14)
Average injected packet rate = 0.149458
Maximum injected packet rate = 0.162 (at node 15)
Minimum accepted packet rate = 0.133333 (at node 4)
Average accepted packet rate = 0.149208
Maximum accepted packet rate = 0.160333 (at node 7)
Minimum injected flit rate = 0.141667 (at node 14)
Average injected flit rate = 0.149458
Maximum injected flit rate = 0.162 (at node 15)
Minimum accepted flit rate = 0.133333 (at node 4)
Average accepted flit rate = 0.149208
Maximum accepted flit rate = 0.160333 (at node 7)
Total number of injected packets = 7174
Total number of injected flits = 7174
Average injected packet length = 1
Total number of accepted packets = 7162
Total number of accepted flits = 7162
Average accepted packet length = 1
Total in-flight flits = 145 (145 measured)
Draining remaining packets ...
Class 0:
Remaining flits: 13939 13972 13976 13979 14003 14006 14014 14016 14021 14030 [...] (119 flits)
Measured flits: 13939 13972 13976 13979 14003 14006 14014 14016 14021 14030 [...] (119 flits)
Class 0:
Remaining flits: 13972 13976 13979 14003 14006 14016 14021 14030 14040 14049 [...] (99 flits)
Measured flits: 13972 13976 13979 14003 14006 14016 14021 14030 14040 14049 [...] (99 flits)
Class 0:
Remaining flits: 13976 13979 14006 14016 14021 14030 14040 14049 14056 14070 [...] (79 flits)
Measured flits: 13976 13979 14006 14016 14021 14030 14040 14049 14056 14070 [...] (79 flits)
Class 0:
Remaining flits: 13979 14006 14016 14021 14030 14040 14049 14056 14070 14086 [...] (61 flits)
Measured flits: 13979 14006 14016 14021 14030 14040 14049 14056 14070 14086 [...] (61 flits)
Class 0:
Remaining flits: 13979 14006 14021 14030 14040 14049 14070 14086 14094 14100 [...] (47 flits)
Measured flits: 13979 14006 14021 14030 14040 14049 14070 14086 14094 14100 [...] (47 flits)
Class 0:
Remaining flits: 14021 14030 14040 14049 14070 14086 14094 14100 14115 14132 [...] (34 flits)
Measured flits: 14021 14030 14040 14049 14070 14086 14094 14100 14115 14132 [...] (34 flits)
Class 0:
Remaining flits: 14021 14030 14086 14094 14100 14115 14132 14138 14145 14146 [...] (25 flits)
Measured flits: 14021 14030 14086 14094 14100 14115 14132 14138 14145 14146 [...] (25 flits)
Class 0:
Remaining flits: 14021 14030 14094 14100 14132 14138 14145 14153 14162 14177 [...] (19 flits)
Measured flits: 14021 14030 14094 14100 14132 14138 14145 14153 14162 14177 [...] (19 flits)
Class 0:
Remaining flits: 14094 14100 14145 14153 14162 14177 14197 14198 14211 14214 [...] (13 flits)
Measured flits: 14094 14100 14145 14153 14162 14177 14197 14198 14211 14214 [...] (13 flits)
Class 0:
Remaining flits: 14094 14153 14177 14198 14211 14214 14217 14229 14230 (9 flits)
Measured flits: 14094 14153 14177 14198 14211 14214 14217 14229 14230 (9 flits)
Class 0:
Remaining flits: 14094 14153 14198 14211 14214 14229 (6 flits)
Measured flits: 14094 14153 14198 14211 14214 14229 (6 flits)
Class 0:
Remaining flits: 14198 14211 14214 14229 (4 flits)
Measured flits: 14198 14211 14214 14229 (4 flits)
Class 0:
Remaining flits: 14211 14229 (2 flits)
Measured flits: 14211 14229 (2 flits)
Class 0:
Remaining flits: 14211 14229 (2 flits)
Measured flits: 14211 14229 (2 flits)
Class 0:
Remaining flits: 14211 (1 flits)
Measured flits: 14211 (1 flits)
Class 0:
Remaining flits: 14211 (1 flits)
Measured flits: 14211 (1 flits)
Class 0:
Remaining flits: 14211 (1 flits)
Measured flits: 14211 (1 flits)
Class 0:
Remaining flits: 14211 (1 flits)
Measured flits: 14211 (1 flits)
Class 0:
Remaining flits: 14211 (1 flits)
Measured flits: 14211 (1 flits)
Class 0:
Remaining flits: 14211 (1 flits)
Measured flits: 14211 (1 flits)
Class 0:
Remaining flits: 14211 (1 flits)
Measured flits: 14211 (1 flits)
Class 0:
Remaining flits: 14211 (1 flits)
Measured flits: 14211 (1 flits)
Class 0:
Remaining flits: 14211 (1 flits)
Measured flits: 14211 (1 flits)
Class 0:
Remaining flits: 14211 (1 flits)
Measured flits: 14211 (1 flits)
Class 0:
Remaining flits: 14211 (1 flits)
Measured flits: 14211 (1 flits)
Class 0:
Remaining flits: 14211 (1 flits)
Measured flits: 14211 (1 flits)
Class 0:
Remaining flits: 14211 (1 flits)
Measured flits: 14211 (1 flits)
Class 0:
Remaining flits: 14211 (1 flits)
Measured flits: 14211 (1 flits)
Class 0:
Remaining flits: 14211 (1 flits)
Measured flits: 14211 (1 flits)
Class 0:
Remaining flits: 14211 (1 flits)
Measured flits: 14211 (1 flits)
Class 0:
Remaining flits: 14211 (1 flits)
Measured flits: 14211 (1 flits)
Class 0:
Remaining flits: 14211 (1 flits)
Measured flits: 14211 (1 flits)
Class 0:
Remaining flits: 14211 (1 flits)
Measured flits: 14211 (1 flits)
Class 0:
Remaining flits: 14211 (1 flits)
Measured flits: 14211 (1 flits)
Class 0:
Remaining flits: 14211 (1 flits)
Measured flits: 14211 (1 flits)
Class 0:
Remaining flits: 14211 (1 flits)
Measured flits: 14211 (1 flits)
Class 0:
Remaining flits: 14211 (1 flits)
Measured flits: 14211 (1 flits)
Class 0:
Remaining flits: 14211 (1 flits)
Measured flits: 14211 (1 flits)
Class 0:
Remaining flits: 14211 (1 flits)
Measured flits: 14211 (1 flits)
Class 0:
Remaining flits: 14211 (1 flits)
Measured flits: 14211 (1 flits)
Class 0:
Remaining flits: 14211 (1 flits)
Measured flits: 14211 (1 flits)
Class 0:
Remaining flits: 14211 (1 flits)
Measured flits: 14211 (1 flits)
Class 0:
Remaining flits: 14211 (1 flits)
Measured flits: 14211 (1 flits)
Class 0:
Remaining flits: 14211 (1 flits)
Measured flits: 14211 (1 flits)
Class 0:
Remaining flits: 14211 (1 flits)
Measured flits: 14211 (1 flits)
Class 0:
Remaining flits: 14211 (1 flits)
Measured flits: 14211 (1 flits)
Class 0:
Remaining flits: 14211 (1 flits)
Measured flits: 14211 (1 flits)
Class 0:
Remaining flits: 14211 (1 flits)
Measured flits: 14211 (1 flits)
Class 0:
Remaining flits: 14211 (1 flits)
Measured flits: 14211 (1 flits)
Class 0:
Remaining flits: 14211 (1 flits)
Measured flits: 14211 (1 flits)
Class 0:
Remaining flits: 14211 (1 flits)
Measured flits: 14211 (1 flits)
Class 0:
Remaining flits: 14211 (1 flits)
Measured flits: 14211 (1 flits)
Class 0:
Remaining flits: 14211 (1 flits)
Measured flits: 14211 (1 flits)
Class 0:
Remaining flits: 14211 (1 flits)
Measured flits: 14211 (1 flits)
Class 0:
Remaining flits: 14211 (1 flits)
Measured flits: 14211 (1 flits)
Class 0:
Remaining flits: 14211 (1 flits)
Measured flits: 14211 (1 flits)
Class 0:
Remaining flits: 14211 (1 flits)
Measured flits: 14211 (1 flits)
Class 0:
Remaining flits: 14211 (1 flits)
Measured flits: 14211 (1 flits)
Class 0:
Remaining flits: 14211 (1 flits)
Measured flits: 14211 (1 flits)
Class 0:
Remaining flits: 14211 (1 flits)
Measured flits: 14211 (1 flits)
Class 0:
Remaining flits: 14211 (1 flits)
Measured flits: 14211 (1 flits)
Class 0:
Remaining flits: 14211 (1 flits)
Measured flits: 14211 (1 flits)
Class 0:
Remaining flits: 14211 (1 flits)
Measured flits: 14211 (1 flits)
Class 0:
Remaining flits: 14211 (1 flits)
Measured flits: 14211 (1 flits)
Class 0:
Remaining flits: 14211 (1 flits)
Measured flits: 14211 (1 flits)
Class 0:
Remaining flits: 14211 (1 flits)
Measured flits: 14211 (1 flits)
Class 0:
Remaining flits: 14211 (1 flits)
Measured flits: 14211 (1 flits)
Class 0:
Remaining flits: 14211 (1 flits)
Measured flits: 14211 (1 flits)
Class 0:
Remaining flits: 14211 (1 flits)
Measured flits: 14211 (1 flits)
Class 0:
Remaining flits: 14211 (1 flits)
Measured flits: 14211 (1 flits)
Class 0:
Remaining flits: 14211 (1 flits)
Measured flits: 14211 (1 flits)
Class 0:
Remaining flits: 14211 (1 flits)
Measured flits: 14211 (1 flits)
Class 0:
Remaining flits: 14211 (1 flits)
Measured flits: 14211 (1 flits)
Class 0:
Remaining flits: 14211 (1 flits)
Measured flits: 14211 (1 flits)
Class 0:
Remaining flits: 14211 (1 flits)
Measured flits: 14211 (1 flits)
Class 0:
Remaining flits: 14211 (1 flits)
Measured flits: 14211 (1 flits)
Class 0:
Remaining flits: 14211 (1 flits)
Measured flits: 14211 (1 flits)
Class 0:
Remaining flits: 14211 (1 flits)
Measured flits: 14211 (1 flits)
Class 0:
Remaining flits: 14211 (1 flits)
Measured flits: 14211 (1 flits)
Class 0:
Remaining flits: 14211 (1 flits)
Measured flits: 14211 (1 flits)
Class 0:
Remaining flits: 14211 (1 flits)
Measured flits: 14211 (1 flits)
Class 0:
Remaining flits: 14211 (1 flits)
Measured flits: 14211 (1 flits)
Class 0:
Remaining flits: 14211 (1 flits)
Measured flits: 14211 (1 flits)
Class 0:
Remaining flits: 14211 (1 flits)
Measured flits: 14211 (1 flits)
Class 0:
Remaining flits: 14211 (1 flits)
Measured flits: 14211 (1 flits)
Class 0:
Remaining flits: 14211 (1 flits)
Measured flits: 14211 (1 flits)
Class 0:
Remaining flits: 14211 (1 flits)
Measured flits: 14211 (1 flits)
Class 0:
Remaining flits: 14211 (1 flits)
Measured flits: 14211 (1 flits)
Class 0:
Remaining flits: 14211 (1 flits)
Measured flits: 14211 (1 flits)
Class 0:
Remaining flits: 14211 (1 flits)
Measured flits: 14211 (1 flits)
Class 0:
Remaining flits: 14211 (1 flits)
Measured flits: 14211 (1 flits)
Class 0:
Remaining flits: 14211 (1 flits)
Measured flits: 14211 (1 flits)
Class 0:
Remaining flits: 14211 (1 flits)
Measured flits: 14211 (1 flits)
Class 0:
Remaining flits: 14211 (1 flits)
Measured flits: 14211 (1 flits)
Class 0:
Remaining flits: 14211 (1 flits)
Measured flits: 14211 (1 flits)
Class 0:
Remaining flits: 14211 (1 flits)
Measured flits: 14211 (1 flits)
Class 0:
Remaining flits: 14211 (1 flits)
Measured flits: 14211 (1 flits)
Class 0:
Remaining flits: 14211 (1 flits)
Measured flits: 14211 (1 flits)
Class 0:
Remaining flits: 14211 (1 flits)
Measured flits: 14211 (1 flits)
Class 0:
Remaining flits: 14211 (1 flits)
Measured flits: 14211 (1 flits)
Class 0:
Remaining flits: 14211 (1 flits)
Measured flits: 14211 (1 flits)
Time taken is 7000 cycles
====== Traffic class 0 ======

Total number of flits generated = 14235, changed lanes = 13862
Overall minimum packet latency = 7 (1 samples)
Overall average packet latency = 58.2765 (1 samples)
Overall maximum packet latency = 229 (1 samples)
Overall minimum network latency = 8 (1 samples)
Overall average network latency = 59.2304 (1 samples)
Overall maximum network latency = 230 (1 samples)
Overall minimum flit latency = 8 (1 samples)
Overall average flit latency = 59.369 (1 samples)
Overall maximum flit latency = 230 (1 samples)
Overall minimum fragmentation = 0 (1 samples)
Overall average fragmentation = 0 (1 samples)
Overall maximum fragmentation = 0 (1 samples)
Overall minimum injected packet rate = 0.141667 (1 samples)
Overall average injected packet rate = 0.149458 (1 samples)
Overall maximum injected packet rate = 0.162 (1 samples)
Overall minimum accepted packet rate = 0.133333 (1 samples)
Overall average accepted packet rate = 0.149208 (1 samples)
Overall maximum accepted packet rate = 0.160333 (1 samples)
Overall minimum injected flit rate = 0.141667 (1 samples)
Overall average injected flit rate = 0.149458 (1 samples)
Overall maximum injected flit rate = 0.162 (1 samples)
Overall minimum accepted flit rate = 0.133333 (1 samples)
Overall average accepted flit rate = 0.149208 (1 samples)
Overall maximum accepted flit rate = 0.160333 (1 samples)
Overall average injected packet size = 1 (1 samples)
Overall average accepted packet size = 1 (1 samples)
Overall average hops = 3.4938 (1 samples)
Overall throughput of the network (flits/cycle) = 4.74467
Overall throughput of the network (packets/cycle) = 4.74467
Total run time 363.991
