make: Nothing to be done for 'all'.
Master: Running timer....
Master: Running SRC....
BEGIN Configuration File: ./examples/bitrev
// Topology

topology = mesh;
k = 4;
n = 2;

// Routing
routing_function = dor;

// Flow control
num_vcs     = 4;
vc_buf_size = 4;
wait_for_tail_credit = 0;

// Router architecture
vc_allocator = islip;
sw_allocator = islip;
alloc_iters  = 1;

credit_delay   = 1;
routing_delay  = 1;
vc_alloc_delay = 1;
sw_alloc_delay = 1;

input_speedup     = 1;
output_speedup    = 1;
internal_speedup  = 1.0;

vc_busy_when_full = 0;

// Traffic
traffic = uniform;
packet_size = 1;

// Simulation
sim_type = throughput;

injection_rate = 0.39;

END Configuration File: ./examples/bitrev
===== Time: 1000 =====
Class 0:
Minimum packet latency = 7
Average packet latency = 288.505
Maximum packet latency = 702
Minimum network latency = 8
Average network latency = 160.05
Maximum network latency = 603
Slowest packet = 836
Minimum flit latency = 8
Average flit latency = 160.05
Maximum flit latency = 603
Slowest flit = 1477
Minimum fragmentation = 0
Average fragmentation = 0
Maximum fragmentation = 0
Minimum injected packet rate = 0.17 (at node 10)
Average injected packet rate = 0.194312
Maximum injected packet rate = 0.232 (at node 3)
Minimum accepted packet rate = 0.139 (at node 11)
Average accepted packet rate = 0.160812
Maximum accepted packet rate = 0.183 (at node 1)
Minimum injected flit rate = 0.17 (at node 10)
Average injected flit rate = 0.194312
Maximum injected flit rate = 0.232 (at node 3)
Minimum accepted flit rate = 0.139 (at node 11)
Average accepted flit rate = 0.160812
Maximum accepted flit rate = 0.183 (at node 1)
Total number of injected packets = 3109
Total number of injected flits = 3109
Average injected packet length = 1
Total number of accepted packets = 2573
Total number of accepted flits = 2573
Average accepted packet length = 1
Total in-flight flits = 552 (0 measured)
===== Time: 2000 =====
Class 0:
Minimum packet latency = 7
Average packet latency = 577.24
Maximum packet latency = 1419
Minimum network latency = 8
Average network latency = 176.37
Maximum network latency = 1005
Slowest packet = 1673
Minimum flit latency = 8
Average flit latency = 176.37
Maximum flit latency = 1005
Slowest flit = 1673
Minimum fragmentation = 0
Average fragmentation = 0
Maximum fragmentation = 0
Minimum injected packet rate = 0.143 (at node 1)
Average injected packet rate = 0.177375
Maximum injected packet rate = 0.219 (at node 6)
Minimum accepted packet rate = 0.1485 (at node 14)
Average accepted packet rate = 0.162375
Maximum accepted packet rate = 0.174 (at node 8)
Minimum injected flit rate = 0.143 (at node 1)
Average injected flit rate = 0.177375
Maximum injected flit rate = 0.219 (at node 6)
Minimum accepted flit rate = 0.1485 (at node 14)
Average accepted flit rate = 0.162375
Maximum accepted flit rate = 0.174 (at node 8)
Total number of injected packets = 5676
Total number of injected flits = 5676
Average injected packet length = 1
Total number of accepted packets = 5196
Total number of accepted flits = 5196
Average accepted packet length = 1
Total in-flight flits = 492 (0 measured)
===== Time: 3000 =====
Class 0:
Minimum packet latency = 881
Average packet latency = 1435.13
Maximum packet latency = 2156
Minimum network latency = 44
Average network latency = 184.416
Maximum network latency = 951
Slowest packet = 5166
Minimum flit latency = 44
Average flit latency = 184.416
Maximum flit latency = 951
Slowest flit = 5194
Minimum fragmentation = 0
Average fragmentation = 0
Maximum fragmentation = 0
Minimum injected packet rate = 0.094 (at node 1)
Average injected packet rate = 0.162
Maximum injected packet rate = 0.202 (at node 7)
Minimum accepted packet rate = 0.148 (at node 4)
Average accepted packet rate = 0.161625
Maximum accepted packet rate = 0.173 (at node 0)
Minimum injected flit rate = 0.094 (at node 1)
Average injected flit rate = 0.162
Maximum injected flit rate = 0.202 (at node 7)
Minimum accepted flit rate = 0.148 (at node 4)
Average accepted flit rate = 0.161625
Maximum accepted flit rate = 0.173 (at node 0)
Total number of injected packets = 2592
Total number of injected flits = 2592
Average injected packet length = 1
Total number of accepted packets = 2586
Total number of accepted flits = 2586
Average accepted packet length = 1
Total in-flight flits = 499 (0 measured)
===== Time: 4000 =====
Class 0:
Minimum packet latency = 1453
Average packet latency = 2047.32
Maximum packet latency = 2890
Minimum network latency = 42
Average network latency = 170.919
Maximum network latency = 761
Slowest packet = 8303
Minimum flit latency = 42
Average flit latency = 188.237
Maximum flit latency = 869
Slowest flit = 6176
Minimum fragmentation = 0
Average fragmentation = 0
Maximum fragmentation = 0
Minimum injected packet rate = 0.085 (at node 1)
Average injected packet rate = 0.162375
Maximum injected packet rate = 0.213 (at node 3)
Minimum accepted packet rate = 0.13 (at node 4)
Average accepted packet rate = 0.161188
Maximum accepted packet rate = 0.191 (at node 7)
Minimum injected flit rate = 0.085 (at node 1)
Average injected flit rate = 0.162375
Maximum injected flit rate = 0.213 (at node 3)
Minimum accepted flit rate = 0.13 (at node 4)
Average accepted flit rate = 0.161188
Maximum accepted flit rate = 0.191 (at node 7)
Total number of injected packets = 2598
Total number of injected flits = 2598
Average injected packet length = 1
Total number of accepted packets = 2579
Total number of accepted flits = 2579
Average accepted packet length = 1
Total in-flight flits = 514 (514 measured)
===== Time: 5000 =====
Class 0:
Minimum packet latency = 1453
Average packet latency = 2349.51
Maximum packet latency = 3680
Minimum network latency = 42
Average network latency = 183.477
Maximum network latency = 992
Slowest packet = 8303
Minimum flit latency = 42
Average flit latency = 190.787
Maximum flit latency = 992
Slowest flit = 10354
Minimum fragmentation = 0
Average fragmentation = 0
Maximum fragmentation = 0
Minimum injected packet rate = 0.0985 (at node 1)
Average injected packet rate = 0.165563
Maximum injected packet rate = 0.2125 (at node 3)
Minimum accepted packet rate = 0.146 (at node 4)
Average accepted packet rate = 0.164156
Maximum accepted packet rate = 0.1855 (at node 7)
Minimum injected flit rate = 0.0985 (at node 1)
Average injected flit rate = 0.165563
Maximum injected flit rate = 0.2125 (at node 3)
Minimum accepted flit rate = 0.146 (at node 4)
Average accepted flit rate = 0.164156
Maximum accepted flit rate = 0.1855 (at node 7)
Total number of injected packets = 5298
Total number of injected flits = 5298
Average injected packet length = 1
Total number of accepted packets = 5253
Total number of accepted flits = 5253
Average accepted packet length = 1
Total in-flight flits = 546 (546 measured)
===== Time: 6000 =====
Class 0:
Minimum packet latency = 1453
Average packet latency = 2629.93
Maximum packet latency = 4295
Minimum network latency = 42
Average network latency = 190.336
Maximum network latency = 992
Slowest packet = 8303
Minimum flit latency = 42
Average flit latency = 194.826
Maximum flit latency = 992
Slowest flit = 10354
Minimum fragmentation = 0
Average fragmentation = 0
Maximum fragmentation = 0
Minimum injected packet rate = 0.110333 (at node 1)
Average injected packet rate = 0.163167
Maximum injected packet rate = 0.196333 (at node 7)
Minimum accepted packet rate = 0.146 (at node 4)
Average accepted packet rate = 0.162271
Maximum accepted packet rate = 0.174333 (at node 9)
Minimum injected flit rate = 0.110333 (at node 1)
Average injected flit rate = 0.163167
Maximum injected flit rate = 0.196333 (at node 7)
Minimum accepted flit rate = 0.146 (at node 4)
Average accepted flit rate = 0.162271
Maximum accepted flit rate = 0.174333 (at node 9)
Total number of injected packets = 7832
Total number of injected flits = 7832
Average injected packet length = 1
Total number of accepted packets = 7789
Total number of accepted flits = 7789
Average accepted packet length = 1
Total in-flight flits = 540 (540 measured)
Draining remaining packets ...
Class 0:
Remaining flits: 14439 14627 14628 14652 14666 14708 14750 14779 14796 14821 [...] (514 flits)
Measured flits: 14439 14627 14628 14652 14666 14708 14750 14779 14796 14821 [...] (514 flits)
Class 0:
Remaining flits: 14439 14627 14628 14652 14666 14708 14750 14779 14796 14821 [...] (488 flits)
Measured flits: 14439 14627 14628 14652 14666 14708 14750 14779 14796 14821 [...] (488 flits)
Class 0:
Remaining flits: 14439 14627 14628 14652 14666 14708 14750 14779 14796 14821 [...] (465 flits)
Measured flits: 14439 14627 14628 14652 14666 14708 14750 14779 14796 14821 [...] (465 flits)
Class 0:
Remaining flits: 14439 14627 14628 14652 14666 14708 14750 14779 14796 14821 [...] (450 flits)
Measured flits: 14439 14627 14628 14652 14666 14708 14750 14779 14796 14821 [...] (450 flits)
Class 0:
Remaining flits: 14627 14628 14652 14666 14750 14779 14796 14821 14839 14889 [...] (423 flits)
Measured flits: 14627 14628 14652 14666 14750 14779 14796 14821 14839 14889 [...] (423 flits)
Class 0:
Remaining flits: 14627 14628 14652 14666 14750 14779 14796 14821 14839 14889 [...] (400 flits)
Measured flits: 14627 14628 14652 14666 14750 14779 14796 14821 14839 14889 [...] (400 flits)
Class 0:
Remaining flits: 14627 14652 14666 14750 14779 14796 14821 14839 14889 14897 [...] (381 flits)
Measured flits: 14627 14652 14666 14750 14779 14796 14821 14839 14889 14897 [...] (381 flits)
Class 0:
Remaining flits: 14627 14652 14666 14750 14779 14796 14821 14839 14889 14897 [...] (360 flits)
Measured flits: 14627 14652 14666 14750 14779 14796 14821 14839 14889 14897 [...] (360 flits)
Class 0:
Remaining flits: 14627 14652 14666 14750 14779 14821 14839 14889 14897 14937 [...] (328 flits)
Measured flits: 14627 14652 14666 14750 14779 14821 14839 14889 14897 14937 [...] (328 flits)
Class 0:
Remaining flits: 14627 14652 14666 14750 14779 14821 14839 14889 14897 14937 [...] (308 flits)
Measured flits: 14627 14652 14666 14750 14779 14821 14839 14889 14897 14937 [...] (308 flits)
Class 0:
Remaining flits: 14627 14652 14666 14750 14779 14821 14839 14889 14897 14937 [...] (291 flits)
Measured flits: 14627 14652 14666 14750 14779 14821 14839 14889 14897 14937 [...] (291 flits)
Class 0:
Remaining flits: 14627 14652 14666 14779 14821 14839 14889 14897 14937 14975 [...] (268 flits)
Measured flits: 14627 14652 14666 14779 14821 14839 14889 14897 14937 14975 [...] (268 flits)
Class 0:
Remaining flits: 14627 14666 14821 14839 14889 14897 14937 14975 15073 15078 [...] (243 flits)
Measured flits: 14627 14666 14821 14839 14889 14897 14937 14975 15073 15078 [...] (243 flits)
Class 0:
Remaining flits: 14627 14666 14821 14839 14889 14897 14937 14975 15073 15078 [...] (223 flits)
Measured flits: 14627 14666 14821 14839 14889 14897 14937 14975 15073 15078 [...] (223 flits)
Class 0:
Remaining flits: 14627 14821 14839 14897 14937 14975 15078 15196 15197 15213 [...] (205 flits)
Measured flits: 14627 14821 14839 14897 14937 14975 15078 15196 15197 15213 [...] (205 flits)
Class 0:
Remaining flits: 14821 14839 14897 14937 14975 15196 15197 15213 15220 15231 [...] (191 flits)
Measured flits: 14821 14839 14897 14937 14975 15196 15197 15213 15220 15231 [...] (191 flits)
Class 0:
Remaining flits: 14821 14839 14897 14937 14975 15196 15197 15213 15220 15231 [...] (172 flits)
Measured flits: 14821 14839 14897 14937 14975 15196 15197 15213 15220 15231 [...] (172 flits)
Class 0:
Remaining flits: 14821 14839 14897 14937 15196 15197 15213 15220 15231 15234 [...] (156 flits)
Measured flits: 14821 14839 14897 14937 15196 15197 15213 15220 15231 15234 [...] (156 flits)
Class 0:
Remaining flits: 14821 14839 14897 14937 15196 15197 15213 15220 15234 15249 [...] (140 flits)
Measured flits: 14821 14839 14897 14937 15196 15197 15213 15220 15234 15249 [...] (140 flits)
Class 0:
Remaining flits: 14821 14839 14937 15196 15197 15213 15220 15234 15249 15251 [...] (125 flits)
Measured flits: 14821 14839 14937 15196 15197 15213 15220 15234 15249 15251 [...] (125 flits)
Class 0:
Remaining flits: 14821 14937 15196 15197 15213 15220 15234 15249 15251 15262 [...] (109 flits)
Measured flits: 14821 14937 15196 15197 15213 15220 15234 15249 15251 15262 [...] (109 flits)
Class 0:
Remaining flits: 14821 14937 15196 15197 15213 15220 15234 15249 15251 15262 [...] (104 flits)
Measured flits: 14821 14937 15196 15197 15213 15220 15234 15249 15251 15262 [...] (104 flits)
Class 0:
Remaining flits: 14821 14937 15197 15213 15220 15234 15249 15251 15262 15263 [...] (100 flits)
Measured flits: 14821 14937 15197 15213 15220 15234 15249 15251 15262 15263 [...] (100 flits)
Class 0:
Remaining flits: 14821 14937 15197 15213 15234 15249 15262 15263 15286 15322 [...] (91 flits)
Measured flits: 14821 14937 15197 15213 15234 15249 15262 15263 15286 15322 [...] (91 flits)
Class 0:
Remaining flits: 14821 14937 15197 15213 15234 15249 15262 15263 15286 15322 [...] (80 flits)
Measured flits: 14821 14937 15197 15213 15234 15249 15262 15263 15286 15322 [...] (80 flits)
Class 0:
Remaining flits: 14937 15197 15234 15249 15262 15286 15322 15390 15448 15460 [...] (71 flits)
Measured flits: 14937 15197 15234 15249 15262 15286 15322 15390 15448 15460 [...] (71 flits)
Class 0:
Remaining flits: 14937 15197 15234 15249 15262 15322 15390 15448 15460 15491 [...] (66 flits)
Measured flits: 14937 15197 15234 15249 15262 15322 15390 15448 15460 15491 [...] (66 flits)
Class 0:
Remaining flits: 14937 15197 15234 15249 15262 15322 15448 15460 15491 15540 [...] (61 flits)
Measured flits: 14937 15197 15234 15249 15262 15322 15448 15460 15491 15540 [...] (61 flits)
Class 0:
Remaining flits: 14937 15234 15249 15262 15448 15460 15491 15540 15551 15623 [...] (57 flits)
Measured flits: 14937 15234 15249 15262 15448 15460 15491 15540 15551 15623 [...] (57 flits)
Class 0:
Remaining flits: 14937 15249 15262 15448 15460 15491 15540 15551 15623 15630 [...] (51 flits)
Measured flits: 14937 15249 15262 15448 15460 15491 15540 15551 15623 15630 [...] (51 flits)
Class 0:
Remaining flits: 15249 15262 15448 15460 15491 15551 15623 15630 15640 15644 [...] (48 flits)
Measured flits: 15249 15262 15448 15460 15491 15551 15623 15630 15640 15644 [...] (48 flits)
Class 0:
Remaining flits: 15249 15262 15448 15491 15623 15640 15644 15646 15687 15699 [...] (43 flits)
Measured flits: 15249 15262 15448 15491 15623 15640 15644 15646 15687 15699 [...] (43 flits)
Class 0:
Remaining flits: 15448 15491 15623 15640 15644 15646 15699 15754 15782 15783 [...] (39 flits)
Measured flits: 15448 15491 15623 15640 15644 15646 15699 15754 15782 15783 [...] (39 flits)
Class 0:
Remaining flits: 15448 15623 15640 15644 15646 15699 15754 15782 15783 15794 [...] (35 flits)
Measured flits: 15448 15623 15640 15644 15646 15699 15754 15782 15783 15794 [...] (35 flits)
Class 0:
Remaining flits: 15448 15623 15640 15644 15646 15754 15782 15783 15794 15814 [...] (32 flits)
Measured flits: 15448 15623 15640 15644 15646 15754 15782 15783 15794 15814 [...] (32 flits)
Class 0:
Remaining flits: 15623 15644 15754 15782 15783 15794 15814 15859 15878 15919 [...] (26 flits)
Measured flits: 15623 15644 15754 15782 15783 15794 15814 15859 15878 15919 [...] (26 flits)
Class 0:
Remaining flits: 15782 15783 15794 15814 15859 15878 15919 15932 15937 15943 [...] (23 flits)
Measured flits: 15782 15783 15794 15814 15859 15878 15919 15932 15937 15943 [...] (23 flits)
Class 0:
Remaining flits: 15782 15783 15814 15859 15878 15919 15932 15937 15943 15967 [...] (21 flits)
Measured flits: 15782 15783 15814 15859 15878 15919 15932 15937 15943 15967 [...] (21 flits)
Class 0:
Remaining flits: 15782 15783 15814 15859 15878 15919 15932 15943 15967 15975 [...] (20 flits)
Measured flits: 15782 15783 15814 15859 15878 15919 15932 15943 15967 15975 [...] (20 flits)
Class 0:
Remaining flits: 15783 15814 15859 15878 15919 15932 15943 15967 15975 16009 [...] (19 flits)
Measured flits: 15783 15814 15859 15878 15919 15932 15943 15967 15975 16009 [...] (19 flits)
Class 0:
Remaining flits: 15783 15814 15878 15919 15943 15967 15975 16009 16026 16047 [...] (17 flits)
Measured flits: 15783 15814 15878 15919 15943 15967 15975 16009 16026 16047 [...] (17 flits)
Class 0:
Remaining flits: 15783 15814 15878 15919 15967 15975 16009 16026 16047 16079 [...] (15 flits)
Measured flits: 15783 15814 15878 15919 15967 15975 16009 16026 16047 16079 [...] (15 flits)
Class 0:
Remaining flits: 15783 15878 15919 15967 15975 16009 16026 16047 16079 16080 [...] (14 flits)
Measured flits: 15783 15878 15919 15967 15975 16009 16026 16047 16079 16080 [...] (14 flits)
Class 0:
Remaining flits: 15878 15919 15967 15975 16009 16026 16047 16079 16080 16081 [...] (13 flits)
Measured flits: 15878 15919 15967 15975 16009 16026 16047 16079 16080 16081 [...] (13 flits)
Class 0:
Remaining flits: 15919 15967 16009 16026 16047 16080 16081 16097 16108 16110 (10 flits)
Measured flits: 15919 15967 16009 16026 16047 16080 16081 16097 16108 16110 (10 flits)
Class 0:
Remaining flits: 15967 16009 16026 16047 16080 16097 16108 16110 (8 flits)
Measured flits: 15967 16009 16026 16047 16080 16097 16108 16110 (8 flits)
Class 0:
Remaining flits: 15967 16009 16026 16047 16080 16097 16108 16110 (8 flits)
Measured flits: 15967 16009 16026 16047 16080 16097 16108 16110 (8 flits)
Class 0:
Remaining flits: 15967 16009 16026 16047 16080 16097 16108 16110 (8 flits)
Measured flits: 15967 16009 16026 16047 16080 16097 16108 16110 (8 flits)
Class 0:
Remaining flits: 15967 16009 16026 16047 16080 16097 16108 16110 (8 flits)
Measured flits: 15967 16009 16026 16047 16080 16097 16108 16110 (8 flits)
Class 0:
Remaining flits: 15967 16009 16026 16047 16080 16097 16108 16110 (8 flits)
Measured flits: 15967 16009 16026 16047 16080 16097 16108 16110 (8 flits)
Class 0:
Remaining flits: 15967 16009 16026 16047 16080 16097 16108 16110 (8 flits)
Measured flits: 15967 16009 16026 16047 16080 16097 16108 16110 (8 flits)
Class 0:
Remaining flits: 15967 16009 16026 16047 16080 16097 16108 16110 (8 flits)
Measured flits: 15967 16009 16026 16047 16080 16097 16108 16110 (8 flits)
Class 0:
Remaining flits: 15967 16009 16026 16047 16080 16097 16108 16110 (8 flits)
Measured flits: 15967 16009 16026 16047 16080 16097 16108 16110 (8 flits)
Class 0:
Remaining flits: 15967 16009 16026 16047 16080 16097 16108 16110 (8 flits)
Measured flits: 15967 16009 16026 16047 16080 16097 16108 16110 (8 flits)
Class 0:
Remaining flits: 15967 16009 16026 16047 16080 16097 16108 16110 (8 flits)
Measured flits: 15967 16009 16026 16047 16080 16097 16108 16110 (8 flits)
Class 0:
Remaining flits: 15967 16009 16026 16047 16080 16097 16108 16110 (8 flits)
Measured flits: 15967 16009 16026 16047 16080 16097 16108 16110 (8 flits)
Class 0:
Remaining flits: 15967 16009 16026 16047 16080 16097 16108 16110 (8 flits)
Measured flits: 15967 16009 16026 16047 16080 16097 16108 16110 (8 flits)
Class 0:
Remaining flits: 15967 16009 16026 16047 16080 16097 16108 16110 (8 flits)
Measured flits: 15967 16009 16026 16047 16080 16097 16108 16110 (8 flits)
Class 0:
Remaining flits: 15967 16009 16026 16047 16080 16097 16108 16110 (8 flits)
Measured flits: 15967 16009 16026 16047 16080 16097 16108 16110 (8 flits)
Class 0:
Remaining flits: 15967 16009 16026 16047 16080 16097 16108 16110 (8 flits)
Measured flits: 15967 16009 16026 16047 16080 16097 16108 16110 (8 flits)
Class 0:
Remaining flits: 15967 16009 16026 16047 16080 16097 16108 16110 (8 flits)
Measured flits: 15967 16009 16026 16047 16080 16097 16108 16110 (8 flits)
Class 0:
Remaining flits: 15967 16009 16026 16047 16080 16097 16108 16110 (8 flits)
Measured flits: 15967 16009 16026 16047 16080 16097 16108 16110 (8 flits)
Class 0:
Remaining flits: 15967 16009 16026 16047 16080 16097 16108 16110 (8 flits)
Measured flits: 15967 16009 16026 16047 16080 16097 16108 16110 (8 flits)
Class 0:
Remaining flits: 15967 16009 16026 16047 16080 16097 16108 16110 (8 flits)
Measured flits: 15967 16009 16026 16047 16080 16097 16108 16110 (8 flits)
Class 0:
Remaining flits: 15967 16009 16026 16047 16080 16097 16108 16110 (8 flits)
Measured flits: 15967 16009 16026 16047 16080 16097 16108 16110 (8 flits)
Class 0:
Remaining flits: 15967 16009 16026 16047 16080 16097 16108 16110 (8 flits)
Measured flits: 15967 16009 16026 16047 16080 16097 16108 16110 (8 flits)
Class 0:
Remaining flits: 15967 16009 16026 16047 16080 16097 16108 16110 (8 flits)
Measured flits: 15967 16009 16026 16047 16080 16097 16108 16110 (8 flits)
Class 0:
Remaining flits: 15967 16009 16026 16047 16080 16097 16108 16110 (8 flits)
Measured flits: 15967 16009 16026 16047 16080 16097 16108 16110 (8 flits)
Class 0:
Remaining flits: 15967 16009 16026 16047 16080 16097 16108 16110 (8 flits)
Measured flits: 15967 16009 16026 16047 16080 16097 16108 16110 (8 flits)
Class 0:
Remaining flits: 15967 16009 16026 16047 16080 16097 16108 16110 (8 flits)
Measured flits: 15967 16009 16026 16047 16080 16097 16108 16110 (8 flits)
Class 0:
Remaining flits: 15967 16009 16026 16047 16080 16097 16108 16110 (8 flits)
Measured flits: 15967 16009 16026 16047 16080 16097 16108 16110 (8 flits)
Class 0:
Remaining flits: 15967 16009 16026 16047 16080 16097 16108 16110 (8 flits)
Measured flits: 15967 16009 16026 16047 16080 16097 16108 16110 (8 flits)
Class 0:
Remaining flits: 15967 16009 16026 16047 16080 16097 16108 16110 (8 flits)
Measured flits: 15967 16009 16026 16047 16080 16097 16108 16110 (8 flits)
Class 0:
Remaining flits: 15967 16009 16026 16047 16080 16097 16108 16110 (8 flits)
Measured flits: 15967 16009 16026 16047 16080 16097 16108 16110 (8 flits)
Class 0:
Remaining flits: 15967 16009 16026 16047 16080 16097 16108 16110 (8 flits)
Measured flits: 15967 16009 16026 16047 16080 16097 16108 16110 (8 flits)
Class 0:
Remaining flits: 15967 16009 16026 16047 16080 16097 16108 16110 (8 flits)
Measured flits: 15967 16009 16026 16047 16080 16097 16108 16110 (8 flits)
Class 0:
Remaining flits: 15967 16009 16026 16047 16080 16097 16108 16110 (8 flits)
Measured flits: 15967 16009 16026 16047 16080 16097 16108 16110 (8 flits)
Class 0:
Remaining flits: 15967 16009 16026 16047 16080 16097 16108 16110 (8 flits)
Measured flits: 15967 16009 16026 16047 16080 16097 16108 16110 (8 flits)
Class 0:
Remaining flits: 15967 16009 16026 16047 16080 16097 16108 16110 (8 flits)
Measured flits: 15967 16009 16026 16047 16080 16097 16108 16110 (8 flits)
Class 0:
Remaining flits: 15967 16009 16026 16047 16080 16097 16108 16110 (8 flits)
Measured flits: 15967 16009 16026 16047 16080 16097 16108 16110 (8 flits)
Class 0:
Remaining flits: 15967 16009 16026 16047 16080 16097 16108 16110 (8 flits)
Measured flits: 15967 16009 16026 16047 16080 16097 16108 16110 (8 flits)
Class 0:
Remaining flits: 15967 16009 16026 16047 16080 16097 16108 16110 (8 flits)
Measured flits: 15967 16009 16026 16047 16080 16097 16108 16110 (8 flits)
Class 0:
Remaining flits: 15967 16009 16026 16047 16080 16097 16108 16110 (8 flits)
Measured flits: 15967 16009 16026 16047 16080 16097 16108 16110 (8 flits)
Class 0:
Remaining flits: 15967 16009 16026 16047 16080 16097 16108 16110 (8 flits)
Measured flits: 15967 16009 16026 16047 16080 16097 16108 16110 (8 flits)
Class 0:
Remaining flits: 15967 16009 16026 16047 16080 16097 16108 16110 (8 flits)
Measured flits: 15967 16009 16026 16047 16080 16097 16108 16110 (8 flits)
Class 0:
Remaining flits: 15967 16009 16026 16047 16080 16097 16108 16110 (8 flits)
Measured flits: 15967 16009 16026 16047 16080 16097 16108 16110 (8 flits)
Class 0:
Remaining flits: 15967 16009 16026 16047 16080 16097 16108 16110 (8 flits)
Measured flits: 15967 16009 16026 16047 16080 16097 16108 16110 (8 flits)
Class 0:
Remaining flits: 15967 16009 16026 16047 16080 16097 16108 16110 (8 flits)
Measured flits: 15967 16009 16026 16047 16080 16097 16108 16110 (8 flits)
Class 0:
Remaining flits: 15967 16009 16026 16047 16080 16097 16108 16110 (8 flits)
Measured flits: 15967 16009 16026 16047 16080 16097 16108 16110 (8 flits)
Class 0:
Remaining flits: 15967 16009 16026 16047 16080 16097 16108 16110 (8 flits)
Measured flits: 15967 16009 16026 16047 16080 16097 16108 16110 (8 flits)
Class 0:
Remaining flits: 15967 16009 16026 16047 16080 16097 16108 16110 (8 flits)
Measured flits: 15967 16009 16026 16047 16080 16097 16108 16110 (8 flits)
Class 0:
Remaining flits: 15967 16009 16026 16047 16080 16097 16108 16110 (8 flits)
Measured flits: 15967 16009 16026 16047 16080 16097 16108 16110 (8 flits)
Class 0:
Remaining flits: 15967 16009 16026 16047 16080 16097 16108 16110 (8 flits)
Measured flits: 15967 16009 16026 16047 16080 16097 16108 16110 (8 flits)
Class 0:
Remaining flits: 15967 16009 16026 16047 16080 16097 16108 16110 (8 flits)
Measured flits: 15967 16009 16026 16047 16080 16097 16108 16110 (8 flits)
Class 0:
Remaining flits: 15967 16009 16026 16047 16080 16097 16108 16110 (8 flits)
Measured flits: 15967 16009 16026 16047 16080 16097 16108 16110 (8 flits)
Class 0:
Remaining flits: 15967 16009 16026 16047 16080 16097 16108 16110 (8 flits)
Measured flits: 15967 16009 16026 16047 16080 16097 16108 16110 (8 flits)
Class 0:
Remaining flits: 15967 16009 16026 16047 16080 16097 16108 16110 (8 flits)
Measured flits: 15967 16009 16026 16047 16080 16097 16108 16110 (8 flits)
Class 0:
Remaining flits: 15967 16009 16026 16047 16080 16097 16108 16110 (8 flits)
Measured flits: 15967 16009 16026 16047 16080 16097 16108 16110 (8 flits)
Class 0:
Remaining flits: 15967 16009 16026 16047 16080 16097 16108 16110 (8 flits)
Measured flits: 15967 16009 16026 16047 16080 16097 16108 16110 (8 flits)
Class 0:
Remaining flits: 15967 16009 16026 16047 16080 16097 16108 16110 (8 flits)
Measured flits: 15967 16009 16026 16047 16080 16097 16108 16110 (8 flits)
Class 0:
Remaining flits: 15967 16009 16026 16047 16080 16097 16108 16110 (8 flits)
Measured flits: 15967 16009 16026 16047 16080 16097 16108 16110 (8 flits)
Time taken is 7000 cycles
====== Traffic class 0 ======

Total number of flits generated = 16111, changed lanes = 15864
Overall minimum packet latency = 1453 (1 samples)
Overall average packet latency = 2696.51 (1 samples)
Overall maximum packet latency = 4680 (1 samples)
Overall minimum network latency = 42 (1 samples)
Overall average network latency = 195.913 (1 samples)
Overall maximum network latency = 992 (1 samples)
Overall minimum flit latency = 42 (1 samples)
Overall average flit latency = 199.781 (1 samples)
Overall maximum flit latency = 992 (1 samples)
Overall minimum fragmentation = 0 (1 samples)
Overall average fragmentation = 0 (1 samples)
Overall maximum fragmentation = 0 (1 samples)
Overall minimum injected packet rate = 0.110333 (1 samples)
Overall average injected packet rate = 0.163167 (1 samples)
Overall maximum injected packet rate = 0.196333 (1 samples)
Overall minimum accepted packet rate = 0.146 (1 samples)
Overall average accepted packet rate = 0.162271 (1 samples)
Overall maximum accepted packet rate = 0.174333 (1 samples)
Overall minimum injected flit rate = 0.110333 (1 samples)
Overall average injected flit rate = 0.163167 (1 samples)
Overall maximum injected flit rate = 0.196333 (1 samples)
Overall minimum accepted flit rate = 0.146 (1 samples)
Overall average accepted flit rate = 0.162271 (1 samples)
Overall maximum accepted flit rate = 0.174333 (1 samples)
Overall average injected packet size = 1 (1 samples)
Overall average accepted packet size = 1 (1 samples)
Overall average hops = 3.51841 (1 samples)
Overall throughput of the network (flits/cycle) = 5.36767
Overall throughput of the network (packets/cycle) = 5.36767
Total run time 6778.89
