make: Nothing to be done for 'all'.
Master: Running timer....
Master: Running SRC....
BEGIN Configuration File: ./examples/bitrev
// Topology

topology = mesh;
k = 4;
n = 2;

// Routing
routing_function = planar_adapt;

// Flow control
num_vcs     = 4;
vc_buf_size = 4;
wait_for_tail_credit = 0;

// Router architecture
vc_allocator = islip;
sw_allocator = islip;
alloc_iters  = 1;

credit_delay   = 1;
routing_delay  = 1;
vc_alloc_delay = 1;
sw_alloc_delay = 1;

input_speedup     = 1;
output_speedup    = 1;
internal_speedup  = 1.0;

vc_busy_when_full = 0;

// Traffic
traffic = uniform;
packet_size = 1;

// Simulation
sim_type = throughput;

injection_rate = 0.05;

END Configuration File: ./examples/bitrev
===== Time: 10000 =====
Class 0:
Minimum packet latency = 8
Average packet latency = 42.2541
Maximum packet latency = 262
Minimum network latency = 9
Average network latency = 43.2541
Maximum network latency = 263
Slowest packet = 1515
Minimum flit latency = 9
Average flit latency = 43.2541
Maximum flit latency = 263
Slowest flit = 1515
Minimum fragmentation = 0
Average fragmentation = 0
Maximum fragmentation = 0
Minimum injected packet rate = 0.0458 (at node 0)
Average injected packet rate = 0.0494687
Maximum injected packet rate = 0.0515 (at node 12)
Minimum accepted packet rate = 0.0451 (at node 4)
Average accepted packet rate = 0.0492875
Maximum accepted packet rate = 0.0533 (at node 8)
Minimum injected flit rate = 0.0458 (at node 0)
Average injected flit rate = 0.0494687
Maximum injected flit rate = 0.0515 (at node 12)
Minimum accepted flit rate = 0.0451 (at node 4)
Average accepted flit rate = 0.0492875
Maximum accepted flit rate = 0.0533 (at node 8)
Total number of injected packets = 7915
Total number of injected flits = 7915
Average injected packet length = 1
Total number of accepted packets = 7886
Total number of accepted flits = 7886
Average accepted packet length = 1
Total in-flight flits = 29 (0 measured)
===== Time: 20000 =====
Class 0:
Minimum packet latency = 8
Average packet latency = 42.6106
Maximum packet latency = 277
Minimum network latency = 9
Average network latency = 43.6106
Maximum network latency = 278
Slowest packet = 8544
Minimum flit latency = 9
Average flit latency = 43.6106
Maximum flit latency = 278
Slowest flit = 8544
Minimum fragmentation = 0
Average fragmentation = 0
Maximum fragmentation = 0
Minimum injected packet rate = 0.0483 (at node 8)
Average injected packet rate = 0.0500375
Maximum injected packet rate = 0.0526 (at node 12)
Minimum accepted packet rate = 0.0456 (at node 4)
Average accepted packet rate = 0.0499344
Maximum accepted packet rate = 0.0534 (at node 8)
Minimum injected flit rate = 0.0483 (at node 8)
Average injected flit rate = 0.0500375
Maximum injected flit rate = 0.0526 (at node 12)
Minimum accepted flit rate = 0.0456 (at node 4)
Average accepted flit rate = 0.0499344
Maximum accepted flit rate = 0.0534 (at node 8)
Total number of injected packets = 16012
Total number of injected flits = 16012
Average injected packet length = 1
Total number of accepted packets = 15979
Total number of accepted flits = 15979
Average accepted packet length = 1
Total in-flight flits = 33 (0 measured)
===== Time: 30000 =====
Class 0:
Minimum packet latency = 8
Average packet latency = 42.4598
Maximum packet latency = 185
Minimum network latency = 9
Average network latency = 43.4598
Maximum network latency = 186
Slowest packet = 17324
Minimum flit latency = 9
Average flit latency = 43.4598
Maximum flit latency = 186
Slowest flit = 17324
Minimum fragmentation = 0
Average fragmentation = 0
Maximum fragmentation = 0
Minimum injected packet rate = 0.045 (at node 15)
Average injected packet rate = 0.0495875
Maximum injected packet rate = 0.0541 (at node 13)
Minimum accepted packet rate = 0.045 (at node 4)
Average accepted packet rate = 0.0496188
Maximum accepted packet rate = 0.0523 (at node 5)
Minimum injected flit rate = 0.045 (at node 15)
Average injected flit rate = 0.0495875
Maximum injected flit rate = 0.0541 (at node 13)
Minimum accepted flit rate = 0.045 (at node 4)
Average accepted flit rate = 0.0496188
Maximum accepted flit rate = 0.0523 (at node 5)
Total number of injected packets = 7934
Total number of injected flits = 7934
Average injected packet length = 1
Total number of accepted packets = 7939
Total number of accepted flits = 7939
Average accepted packet length = 1
Total in-flight flits = 28 (0 measured)
===== Time: 40000 =====
Class 0:
Minimum packet latency = 8
Average packet latency = 42.4064
Maximum packet latency = 168
Minimum network latency = 9
Average network latency = 43.4064
Maximum network latency = 169
Slowest packet = 31766
Minimum flit latency = 9
Average flit latency = 43.4233
Maximum flit latency = 169
Slowest flit = 31766
Minimum fragmentation = 0
Average fragmentation = 0
Maximum fragmentation = 0
Minimum injected packet rate = 0.0473 (at node 6)
Average injected packet rate = 0.0501938
Maximum injected packet rate = 0.0543 (at node 14)
Minimum accepted packet rate = 0.0455 (at node 4)
Average accepted packet rate = 0.0501562
Maximum accepted packet rate = 0.0545 (at node 10)
Minimum injected flit rate = 0.0473 (at node 6)
Average injected flit rate = 0.0501938
Maximum injected flit rate = 0.0543 (at node 14)
Minimum accepted flit rate = 0.0455 (at node 4)
Average accepted flit rate = 0.0501562
Maximum accepted flit rate = 0.0545 (at node 10)
Total number of injected packets = 8031
Total number of injected flits = 8031
Average injected packet length = 1
Total number of accepted packets = 8025
Total number of accepted flits = 8025
Average accepted packet length = 1
Total in-flight flits = 34 (34 measured)
===== Time: 50000 =====
Class 0:
Minimum packet latency = 8
Average packet latency = 42.1104
Maximum packet latency = 191
Minimum network latency = 9
Average network latency = 43.1104
Maximum network latency = 192
Slowest packet = 34831
Minimum flit latency = 9
Average flit latency = 43.1194
Maximum flit latency = 192
Slowest flit = 34831
Minimum fragmentation = 0
Average fragmentation = 0
Maximum fragmentation = 0
Minimum injected packet rate = 0.04815 (at node 10)
Average injected packet rate = 0.0503
Maximum injected packet rate = 0.05345 (at node 14)
Minimum accepted packet rate = 0.04815 (at node 4)
Average accepted packet rate = 0.0502812
Maximum accepted packet rate = 0.05285 (at node 7)
Minimum injected flit rate = 0.04815 (at node 10)
Average injected flit rate = 0.0503
Maximum injected flit rate = 0.05345 (at node 14)
Minimum accepted flit rate = 0.04815 (at node 4)
Average accepted flit rate = 0.0502812
Maximum accepted flit rate = 0.05285 (at node 7)
Total number of injected packets = 16096
Total number of injected flits = 16096
Average injected packet length = 1
Total number of accepted packets = 16090
Total number of accepted flits = 16090
Average accepted packet length = 1
Total in-flight flits = 34 (34 measured)
===== Time: 60000 =====
Class 0:
Minimum packet latency = 8
Average packet latency = 42.2121
Maximum packet latency = 451
Minimum network latency = 9
Average network latency = 43.2121
Maximum network latency = 452
Slowest packet = 43062
Minimum flit latency = 9
Average flit latency = 43.2179
Maximum flit latency = 452
Slowest flit = 43062
Minimum fragmentation = 0
Average fragmentation = 0
Maximum fragmentation = 0
Minimum injected packet rate = 0.0482 (at node 10)
Average injected packet rate = 0.0501896
Maximum injected packet rate = 0.0528667 (at node 14)
Minimum accepted packet rate = 0.0484333 (at node 0)
Average accepted packet rate = 0.0501521
Maximum accepted packet rate = 0.0532333 (at node 7)
Minimum injected flit rate = 0.0482 (at node 10)
Average injected flit rate = 0.0501896
Maximum injected flit rate = 0.0528667 (at node 14)
Minimum accepted flit rate = 0.0484333 (at node 0)
Average accepted flit rate = 0.0501521
Maximum accepted flit rate = 0.0532333 (at node 7)
Total number of injected packets = 24091
Total number of injected flits = 24091
Average injected packet length = 1
Total number of accepted packets = 24073
Total number of accepted flits = 24073
Average accepted packet length = 1
Total in-flight flits = 46 (46 measured)
Draining remaining packets ...
Class 0:
Remaining flits: 47990 47991 47992 47993 47994 47996 48002 48003 48004 48005 [...] (36 flits)
Measured flits: 47990 47991 47992 47993 47994 47996 48002 48003 48004 48005 [...] (36 flits)
Class 0:
Remaining flits: 47991 47993 47994 47996 48003 48004 48005 48006 48010 48012 [...] (29 flits)
Measured flits: 47991 47993 47994 47996 48003 48004 48005 48006 48010 48012 [...] (29 flits)
Class 0:
Remaining flits: 47994 47996 48005 48014 48017 48019 48020 48023 48024 48025 [...] (18 flits)
Measured flits: 47994 47996 48005 48014 48017 48019 48020 48023 48024 48025 [...] (18 flits)
Class 0:
Remaining flits: 47994 48005 48017 48019 48020 48023 48025 48029 48031 48032 [...] (13 flits)
Measured flits: 47994 48005 48017 48019 48020 48023 48025 48029 48031 48032 [...] (13 flits)
Class 0:
Remaining flits: 47994 48005 48017 48023 48031 48033 (6 flits)
Measured flits: 47994 48005 48017 48023 48031 48033 (6 flits)
Class 0:
Remaining flits: 47994 48023 (2 flits)
Measured flits: 47994 48023 (2 flits)
Class 0:
Remaining flits: 47994 (1 flits)
Measured flits: 47994 (1 flits)
Class 0:
Remaining flits: 47994 (1 flits)
Measured flits: 47994 (1 flits)
Class 0:
Remaining flits: 47994 (1 flits)
Measured flits: 47994 (1 flits)
Class 0:
Remaining flits: 47994 (1 flits)
Measured flits: 47994 (1 flits)
Class 0:
Remaining flits: 47994 (1 flits)
Measured flits: 47994 (1 flits)
Class 0:
Remaining flits: 47994 (1 flits)
Measured flits: 47994 (1 flits)
Class 0:
Remaining flits: 47994 (1 flits)
Measured flits: 47994 (1 flits)
Class 0:
Remaining flits: 47994 (1 flits)
Measured flits: 47994 (1 flits)
Class 0:
Remaining flits: 47994 (1 flits)
Measured flits: 47994 (1 flits)
Class 0:
Remaining flits: 47994 (1 flits)
Measured flits: 47994 (1 flits)
Class 0:
Remaining flits: 47994 (1 flits)
Measured flits: 47994 (1 flits)
Class 0:
Remaining flits: 47994 (1 flits)
Measured flits: 47994 (1 flits)
Class 0:
Remaining flits: 47994 (1 flits)
Measured flits: 47994 (1 flits)
Class 0:
Remaining flits: 47994 (1 flits)
Measured flits: 47994 (1 flits)
Class 0:
Remaining flits: 47994 (1 flits)
Measured flits: 47994 (1 flits)
Class 0:
Remaining flits: 47994 (1 flits)
Measured flits: 47994 (1 flits)
Class 0:
Remaining flits: 47994 (1 flits)
Measured flits: 47994 (1 flits)
Class 0:
Remaining flits: 47994 (1 flits)
Measured flits: 47994 (1 flits)
Class 0:
Remaining flits: 47994 (1 flits)
Measured flits: 47994 (1 flits)
Class 0:
Remaining flits: 47994 (1 flits)
Measured flits: 47994 (1 flits)
Class 0:
Remaining flits: 47994 (1 flits)
Measured flits: 47994 (1 flits)
Class 0:
Remaining flits: 47994 (1 flits)
Measured flits: 47994 (1 flits)
Class 0:
Remaining flits: 47994 (1 flits)
Measured flits: 47994 (1 flits)
Class 0:
Remaining flits: 47994 (1 flits)
Measured flits: 47994 (1 flits)
Class 0:
Remaining flits: 47994 (1 flits)
Measured flits: 47994 (1 flits)
Class 0:
Remaining flits: 47994 (1 flits)
Measured flits: 47994 (1 flits)
Class 0:
Remaining flits: 47994 (1 flits)
Measured flits: 47994 (1 flits)
Class 0:
Remaining flits: 47994 (1 flits)
Measured flits: 47994 (1 flits)
Class 0:
Remaining flits: 47994 (1 flits)
Measured flits: 47994 (1 flits)
Class 0:
Remaining flits: 47994 (1 flits)
Measured flits: 47994 (1 flits)
Class 0:
Remaining flits: 47994 (1 flits)
Measured flits: 47994 (1 flits)
Class 0:
Remaining flits: 47994 (1 flits)
Measured flits: 47994 (1 flits)
Class 0:
Remaining flits: 47994 (1 flits)
Measured flits: 47994 (1 flits)
Class 0:
Remaining flits: 47994 (1 flits)
Measured flits: 47994 (1 flits)
Class 0:
Remaining flits: 47994 (1 flits)
Measured flits: 47994 (1 flits)
Class 0:
Remaining flits: 47994 (1 flits)
Measured flits: 47994 (1 flits)
Class 0:
Remaining flits: 47994 (1 flits)
Measured flits: 47994 (1 flits)
Class 0:
Remaining flits: 47994 (1 flits)
Measured flits: 47994 (1 flits)
Class 0:
Remaining flits: 47994 (1 flits)
Measured flits: 47994 (1 flits)
Class 0:
Remaining flits: 47994 (1 flits)
Measured flits: 47994 (1 flits)
Class 0:
Remaining flits: 47994 (1 flits)
Measured flits: 47994 (1 flits)
Class 0:
Remaining flits: 47994 (1 flits)
Measured flits: 47994 (1 flits)
Class 0:
Remaining flits: 47994 (1 flits)
Measured flits: 47994 (1 flits)
Class 0:
Remaining flits: 47994 (1 flits)
Measured flits: 47994 (1 flits)
Class 0:
Remaining flits: 47994 (1 flits)
Measured flits: 47994 (1 flits)
Class 0:
Remaining flits: 47994 (1 flits)
Measured flits: 47994 (1 flits)
Class 0:
Remaining flits: 47994 (1 flits)
Measured flits: 47994 (1 flits)
Class 0:
Remaining flits: 47994 (1 flits)
Measured flits: 47994 (1 flits)
Class 0:
Remaining flits: 47994 (1 flits)
Measured flits: 47994 (1 flits)
Class 0:
Remaining flits: 47994 (1 flits)
Measured flits: 47994 (1 flits)
Class 0:
Remaining flits: 47994 (1 flits)
Measured flits: 47994 (1 flits)
Class 0:
Remaining flits: 47994 (1 flits)
Measured flits: 47994 (1 flits)
Class 0:
Remaining flits: 47994 (1 flits)
Measured flits: 47994 (1 flits)
Class 0:
Remaining flits: 47994 (1 flits)
Measured flits: 47994 (1 flits)
Class 0:
Remaining flits: 47994 (1 flits)
Measured flits: 47994 (1 flits)
Class 0:
Remaining flits: 47994 (1 flits)
Measured flits: 47994 (1 flits)
Class 0:
Remaining flits: 47994 (1 flits)
Measured flits: 47994 (1 flits)
Class 0:
Remaining flits: 47994 (1 flits)
Measured flits: 47994 (1 flits)
Class 0:
Remaining flits: 47994 (1 flits)
Measured flits: 47994 (1 flits)
Class 0:
Remaining flits: 47994 (1 flits)
Measured flits: 47994 (1 flits)
Class 0:
Remaining flits: 47994 (1 flits)
Measured flits: 47994 (1 flits)
Class 0:
Remaining flits: 47994 (1 flits)
Measured flits: 47994 (1 flits)
Class 0:
Remaining flits: 47994 (1 flits)
Measured flits: 47994 (1 flits)
Class 0:
Remaining flits: 47994 (1 flits)
Measured flits: 47994 (1 flits)
Class 0:
Remaining flits: 47994 (1 flits)
Measured flits: 47994 (1 flits)
Class 0:
Remaining flits: 47994 (1 flits)
Measured flits: 47994 (1 flits)
Class 0:
Remaining flits: 47994 (1 flits)
Measured flits: 47994 (1 flits)
Class 0:
Remaining flits: 47994 (1 flits)
Measured flits: 47994 (1 flits)
Class 0:
Remaining flits: 47994 (1 flits)
Measured flits: 47994 (1 flits)
Class 0:
Remaining flits: 47994 (1 flits)
Measured flits: 47994 (1 flits)
Class 0:
Remaining flits: 47994 (1 flits)
Measured flits: 47994 (1 flits)
Class 0:
Remaining flits: 47994 (1 flits)
Measured flits: 47994 (1 flits)
Class 0:
Remaining flits: 47994 (1 flits)
Measured flits: 47994 (1 flits)
Class 0:
Remaining flits: 47994 (1 flits)
Measured flits: 47994 (1 flits)
Class 0:
Remaining flits: 47994 (1 flits)
Measured flits: 47994 (1 flits)
Class 0:
Remaining flits: 47994 (1 flits)
Measured flits: 47994 (1 flits)
Class 0:
Remaining flits: 47994 (1 flits)
Measured flits: 47994 (1 flits)
Class 0:
Remaining flits: 47994 (1 flits)
Measured flits: 47994 (1 flits)
Class 0:
Remaining flits: 47994 (1 flits)
Measured flits: 47994 (1 flits)
Class 0:
Remaining flits: 47994 (1 flits)
Measured flits: 47994 (1 flits)
Class 0:
Remaining flits: 47994 (1 flits)
Measured flits: 47994 (1 flits)
Class 0:
Remaining flits: 47994 (1 flits)
Measured flits: 47994 (1 flits)
Class 0:
Remaining flits: 47994 (1 flits)
Measured flits: 47994 (1 flits)
Class 0:
Remaining flits: 47994 (1 flits)
Measured flits: 47994 (1 flits)
Class 0:
Remaining flits: 47994 (1 flits)
Measured flits: 47994 (1 flits)
Class 0:
Remaining flits: 47994 (1 flits)
Measured flits: 47994 (1 flits)
Class 0:
Remaining flits: 47994 (1 flits)
Measured flits: 47994 (1 flits)
Class 0:
Remaining flits: 47994 (1 flits)
Measured flits: 47994 (1 flits)
Class 0:
Remaining flits: 47994 (1 flits)
Measured flits: 47994 (1 flits)
Class 0:
Remaining flits: 47994 (1 flits)
Measured flits: 47994 (1 flits)
Class 0:
Remaining flits: 47994 (1 flits)
Measured flits: 47994 (1 flits)
Class 0:
Remaining flits: 47994 (1 flits)
Measured flits: 47994 (1 flits)
Class 0:
Remaining flits: 47994 (1 flits)
Measured flits: 47994 (1 flits)
Class 0:
Remaining flits: 47994 (1 flits)
Measured flits: 47994 (1 flits)
Class 0:
Remaining flits: 47994 (1 flits)
Measured flits: 47994 (1 flits)
Time taken is 61000 cycles
====== Traffic class 0 ======

Total number of flits generated = 48037, changed lanes = 46743
Overall minimum packet latency = 8 (1 samples)
Overall average packet latency = 42.2314 (1 samples)
Overall maximum packet latency = 451 (1 samples)
Overall minimum network latency = 9 (1 samples)
Overall average network latency = 43.2314 (1 samples)
Overall maximum network latency = 452 (1 samples)
Overall minimum flit latency = 9 (1 samples)
Overall average flit latency = 43.2373 (1 samples)
Overall maximum flit latency = 452 (1 samples)
Overall minimum fragmentation = 0 (1 samples)
Overall average fragmentation = 0 (1 samples)
Overall maximum fragmentation = 0 (1 samples)
Overall minimum injected packet rate = 0.0482 (1 samples)
Overall average injected packet rate = 0.0501896 (1 samples)
Overall maximum injected packet rate = 0.0528667 (1 samples)
Overall minimum accepted packet rate = 0.0484333 (1 samples)
Overall average accepted packet rate = 0.0501521 (1 samples)
Overall maximum accepted packet rate = 0.0532333 (1 samples)
Overall minimum injected flit rate = 0.0482 (1 samples)
Overall average injected flit rate = 0.0501896 (1 samples)
Overall maximum injected flit rate = 0.0528667 (1 samples)
Overall minimum accepted flit rate = 0.0484333 (1 samples)
Overall average accepted flit rate = 0.0501521 (1 samples)
Overall maximum accepted flit rate = 0.0532333 (1 samples)
Overall average injected packet size = 1 (1 samples)
Overall average accepted packet size = 1 (1 samples)
Overall average hops = 3.4922 (1 samples)
Overall throughput of the network (flits/cycle) = 1.6012
Overall throughput of the network (packets/cycle) = 1.6012
Total run time 46.0754
