g++ -Wall -I. -Iarbiters -Iallocators -Irouters -Inetworks -Ipower  -O3 -g -MMD -c booksim_config.cpp -o booksim_config.o
g++  outputset.o misc_utils.o routefunc.o synthetictrafficmanager.o workloadtrafficmanager.o steadystatetrafficmanager.o buffer_state.o module.o flitchannel.o buffer.o main.o rng_double_wrapper.o stats.o workload.o traffic.o batchtrafficmanager.o vc.o credit.o rng_wrapper.o injection.o config_utils.o flit.o trafficmanager.o random_utils.o booksim_config.o power/buffer_monitor.o power/switch_monitor.o power/power_module.o routers/socket_lib.o routers/router.o routers/iq_router.o arbiters/prio_arb.o arbiters/matrix_arb.o arbiters/tree_arb.o arbiters/roundrobin_arb.o arbiters/arbiter.o allocators/wavefront.o allocators/islip.o allocators/selalloc.o allocators/separable_output_first.o allocators/separable.o allocators/allocator.o allocators/pim.o allocators/separable_input_first.o allocators/loa.o allocators/maxsize.o networks/fattree.o networks/cmesh.o networks/flatfly_onchip.o networks/qtree.o networks/tree4.o networks/network.o networks/anynet.o networks/fly.o networks/dragonfly.o networks/kncube.o lex.yy.o y.tab.o netrace/netrace.o -o booksim
Master: Running timer....
Master: Running SRC....
BEGIN Configuration File: ./examples/bitrev
// Topology

topology = mesh;
k = 16;
n = 2;

// Routing
routing_function = dor;

// Flow control
num_vcs     = 4;
vc_buf_size = 4;
wait_for_tail_credit = 0;

// Router architecture
vc_allocator = islip;
sw_allocator = islip;
alloc_iters  = 1;

credit_delay   = 1;
routing_delay  = 1;
vc_alloc_delay = 1;
sw_alloc_delay = 1;

input_speedup     = 1;
output_speedup    = 1;
internal_speedup  = 1.0;

vc_busy_when_full = 0;

// Traffic
traffic = uniform;
packet_size = 1;

// Simulation
sim_type = throughput;

injection_rate = 0.05;

END Configuration File: ./examples/bitrev
===== Time: 100 =====
Class 0:
Minimum packet latency = 7
Average packet latency = 48.6854
Maximum packet latency = 89
Minimum network latency = 8
Average network latency = 49.6854
Maximum network latency = 90
Slowest packet = 113
Minimum flit latency = 8
Average flit latency = 49.6854
Maximum flit latency = 90
Slowest flit = 83
Minimum fragmentation = 0
Average fragmentation = 0
Maximum fragmentation = 0
Minimum injected packet rate = 0 (at node 91)
Average injected packet rate = 0.0496875
Maximum injected packet rate = 0.11 (at node 122)
Minimum accepted packet rate = 0 (at node 0)
Average accepted packet rate = 0.00695313
Maximum accepted packet rate = 0.04 (at node 3)
Minimum injected flit rate = 0 (at node 91)
Average injected flit rate = 0.0496875
Maximum injected flit rate = 0.11 (at node 122)
Minimum accepted flit rate = 0 (at node 0)
Average accepted flit rate = 0.00695313
Maximum accepted flit rate = 0.04 (at node 3)
Total number of injected packets = 1272
Total number of injected flits = 1272
Average injected packet length = 1
Total number of accepted packets = 178
Total number of accepted flits = 178
Average accepted packet length = 1
Total in-flight flits = 1094 (0 measured)
===== Time: 200 =====
Class 0:
Minimum packet latency = 7
Average packet latency = 81.8864
Maximum packet latency = 191
Minimum network latency = 8
Average network latency = 82.8864
Maximum network latency = 192
Slowest packet = 66
Minimum flit latency = 8
Average flit latency = 82.8864
Maximum flit latency = 192
Slowest flit = 66
Minimum fragmentation = 0
Average fragmentation = 0
Maximum fragmentation = 0
Minimum injected packet rate = 0.005 (at node 202)
Average injected packet rate = 0.0500391
Maximum injected packet rate = 0.095 (at node 10)
Minimum accepted packet rate = 0 (at node 144)
Average accepted packet rate = 0.019082
Maximum accepted packet rate = 0.06 (at node 3)
Minimum injected flit rate = 0.005 (at node 202)
Average injected flit rate = 0.0500391
Maximum injected flit rate = 0.095 (at node 10)
Minimum accepted flit rate = 0 (at node 144)
Average accepted flit rate = 0.019082
Maximum accepted flit rate = 0.06 (at node 3)
Total number of injected packets = 2562
Total number of injected flits = 2562
Average injected packet length = 1
Total number of accepted packets = 977
Total number of accepted flits = 977
Average accepted packet length = 1
Total in-flight flits = 1585 (0 measured)
===== Time: 300 =====
Class 0:
Minimum packet latency = 7
Average packet latency = 118.991
Maximum packet latency = 280
Minimum network latency = 8
Average network latency = 119.991
Maximum network latency = 281
Slowest packet = 57
Minimum flit latency = 8
Average flit latency = 119.991
Maximum flit latency = 281
Slowest flit = 57
Minimum fragmentation = 0
Average fragmentation = 0
Maximum fragmentation = 0
Minimum injected packet rate = 0 (at node 10)
Average injected packet rate = 0.0475
Maximum injected packet rate = 0.11 (at node 218)
Minimum accepted packet rate = 0 (at node 14)
Average accepted packet rate = 0.0408594
Maximum accepted packet rate = 0.11 (at node 159)
Minimum injected flit rate = 0 (at node 10)
Average injected flit rate = 0.0475
Maximum injected flit rate = 0.11 (at node 218)
Minimum accepted flit rate = 0 (at node 14)
Average accepted flit rate = 0.0408594
Maximum accepted flit rate = 0.11 (at node 159)
Total number of injected packets = 1216
Total number of injected flits = 1216
Average injected packet length = 1
Total number of accepted packets = 1046
Total number of accepted flits = 1046
Average accepted packet length = 1
Total in-flight flits = 1755 (0 measured)
===== Time: 400 =====
Class 0:
Minimum packet latency = 8
Average packet latency = 44.2437
Maximum packet latency = 93
Minimum network latency = 9
Average network latency = 45.2437
Maximum network latency = 94
Slowest packet = 3835
Minimum flit latency = 9
Average flit latency = 142.794
Maximum flit latency = 357
Slowest flit = 499
Minimum fragmentation = 0
Average fragmentation = 0
Maximum fragmentation = 0
Minimum injected packet rate = 0 (at node 66)
Average injected packet rate = 0.0503125
Maximum injected packet rate = 0.12 (at node 25)
Minimum accepted packet rate = 0 (at node 39)
Average accepted packet rate = 0.0396094
Maximum accepted packet rate = 0.11 (at node 60)
Minimum injected flit rate = 0 (at node 66)
Average injected flit rate = 0.0503125
Maximum injected flit rate = 0.12 (at node 25)
Minimum accepted flit rate = 0 (at node 39)
Average accepted flit rate = 0.0396094
Maximum accepted flit rate = 0.11 (at node 60)
Total number of injected packets = 1288
Total number of injected flits = 1288
Average injected packet length = 1
Total number of accepted packets = 1014
Total number of accepted flits = 1014
Average accepted packet length = 1
Total in-flight flits = 2029 (1169 measured)
===== Time: 500 =====
Class 0:
Minimum packet latency = 8
Average packet latency = 78.6254
Maximum packet latency = 193
Minimum network latency = 9
Average network latency = 79.6254
Maximum network latency = 194
Slowest packet = 3847
Minimum flit latency = 9
Average flit latency = 147.405
Maximum flit latency = 408
Slowest flit = 862
Minimum fragmentation = 0
Average fragmentation = 0
Maximum fragmentation = 0
Minimum injected packet rate = 0.01 (at node 207)
Average injected packet rate = 0.0500781
Maximum injected packet rate = 0.095 (at node 165)
Minimum accepted packet rate = 0.005 (at node 121)
Average accepted packet rate = 0.0405859
Maximum accepted packet rate = 0.08 (at node 230)
Minimum injected flit rate = 0.01 (at node 207)
Average injected flit rate = 0.0500781
Maximum injected flit rate = 0.095 (at node 165)
Minimum accepted flit rate = 0.005 (at node 121)
Average accepted flit rate = 0.0405859
Maximum accepted flit rate = 0.08 (at node 230)
Total number of injected packets = 2564
Total number of injected flits = 2564
Average injected packet length = 1
Total number of accepted packets = 2078
Total number of accepted flits = 2078
Average accepted packet length = 1
Total in-flight flits = 2241 (1894 measured)
===== Time: 600 =====
Class 0:
Minimum packet latency = 7
Average packet latency = 107.032
Maximum packet latency = 293
Minimum network latency = 8
Average network latency = 108.032
Maximum network latency = 294
Slowest packet = 3816
Minimum flit latency = 8
Average flit latency = 153.959
Maximum flit latency = 478
Slowest flit = 1202
Minimum fragmentation = 0
Average fragmentation = 0
Maximum fragmentation = 0
Minimum injected packet rate = 0.0166667 (at node 169)
Average injected packet rate = 0.0501693
Maximum injected packet rate = 0.0933333 (at node 47)
Minimum accepted packet rate = 0.0133333 (at node 1)
Average accepted packet rate = 0.0415755
Maximum accepted packet rate = 0.0766667 (at node 58)
Minimum injected flit rate = 0.0166667 (at node 169)
Average injected flit rate = 0.0501693
Maximum injected flit rate = 0.0933333 (at node 47)
Minimum accepted flit rate = 0.0133333 (at node 1)
Average accepted flit rate = 0.0415755
Maximum accepted flit rate = 0.0766667 (at node 58)
Total number of injected packets = 3853
Total number of injected flits = 3853
Average injected packet length = 1
Total number of accepted packets = 3193
Total number of accepted flits = 3193
Average accepted packet length = 1
Total in-flight flits = 2415 (2306 measured)
Draining remaining packets ...
Class 0:
Remaining flits: 1300 1768 2216 2245 2258 2297 2452 2473 2588 2602 [...] (2311 flits)
Measured flits: 3788 3789 3790 3802 3803 3809 3817 3822 3837 3839 [...] (2215 flits)
Class 0:
Remaining flits: 1300 1768 2245 2258 2297 2588 2602 2606 2679 2731 [...] (2197 flits)
Measured flits: 3788 3789 3790 3802 3809 3822 3837 3839 3849 3850 [...] (2110 flits)
Class 0:
Remaining flits: 1300 1768 2245 2258 2297 2588 2602 2606 2679 2731 [...] (2104 flits)
Measured flits: 3788 3789 3790 3802 3809 3837 3839 3849 3850 3851 [...] (2026 flits)
Class 0:
Remaining flits: 1300 1768 2258 2297 2588 2602 2606 2679 2731 2732 [...] (1993 flits)
Measured flits: 3788 3789 3790 3802 3809 3837 3849 3850 3851 3853 [...] (1923 flits)
Class 0:
Remaining flits: 1300 1768 2258 2297 2588 2602 2606 2679 2731 2732 [...] (1893 flits)
Measured flits: 3788 3789 3790 3802 3809 3837 3849 3850 3851 3853 [...] (1834 flits)
Class 0:
Remaining flits: 1768 2297 2588 2602 2606 2679 2731 2732 2759 2817 [...] (1787 flits)
Measured flits: 3788 3789 3790 3802 3809 3837 3849 3850 3851 3853 [...] (1739 flits)
Class 0:
Remaining flits: 1768 2297 2588 2606 2679 2731 2732 2759 2817 2844 [...] (1714 flits)
Measured flits: 3788 3789 3790 3809 3837 3849 3850 3851 3853 3854 [...] (1669 flits)
Class 0:
Remaining flits: 1768 2297 2588 2606 2679 2731 2759 2817 2844 2868 [...] (1618 flits)
Measured flits: 3788 3789 3790 3809 3837 3849 3850 3851 3853 3854 [...] (1580 flits)
Class 0:
Remaining flits: 1768 2588 2606 2679 2731 2759 2817 2844 2868 2926 [...] (1542 flits)
Measured flits: 3788 3789 3790 3809 3849 3850 3853 3854 3863 3918 [...] (1507 flits)
Class 0:
Remaining flits: 2588 2606 2679 2731 2759 2844 2926 3012 3076 3149 [...] (1454 flits)
Measured flits: 3788 3789 3790 3809 3849 3850 3853 3854 3863 3920 [...] (1427 flits)
Class 0:
Remaining flits: 2588 2606 2679 2731 2926 3012 3076 3149 3152 3201 [...] (1379 flits)
Measured flits: 3788 3789 3790 3809 3849 3850 3853 3863 3920 3938 [...] (1354 flits)
Class 0:
Remaining flits: 2588 2606 2679 2731 2926 3012 3076 3149 3152 3201 [...] (1287 flits)
Measured flits: 3788 3789 3790 3809 3849 3853 3863 3920 3938 3988 [...] (1266 flits)
Class 0:
Remaining flits: 2588 2606 2679 2731 2926 3012 3076 3149 3152 3201 [...] (1195 flits)
Measured flits: 3788 3789 3790 3849 3853 3863 3920 3988 4005 4033 [...] (1174 flits)
Class 0:
Remaining flits: 2588 2606 2679 2731 2926 3149 3152 3201 3288 3311 [...] (1123 flits)
Measured flits: 3788 3789 3849 3853 3863 3920 4005 4067 4069 4092 [...] (1105 flits)
Class 0:
Remaining flits: 2588 2606 2731 2926 3149 3152 3201 3288 3311 3493 [...] (1042 flits)
Measured flits: 3788 3789 3849 3853 3920 4005 4069 4092 4112 4145 [...] (1026 flits)
Class 0:
Remaining flits: 2606 2731 2926 3149 3152 3311 3493 3530 3542 3543 [...] (949 flits)
Measured flits: 3788 3789 3849 3853 3920 4005 4069 4092 4112 4145 [...] (937 flits)
Class 0:
Remaining flits: 2606 2731 2926 3149 3152 3311 3530 3542 3543 3657 [...] (875 flits)
Measured flits: 3788 3789 3849 3853 3920 4005 4069 4092 4145 4191 [...] (864 flits)
Class 0:
Remaining flits: 2731 2926 3149 3152 3311 3530 3543 3657 3660 3788 [...] (814 flits)
Measured flits: 3788 3789 3849 3853 4005 4069 4092 4145 4191 4238 [...] (805 flits)
Class 0:
Remaining flits: 2731 2926 3149 3152 3311 3530 3543 3657 3660 3788 [...] (742 flits)
Measured flits: 3788 3789 3853 4005 4069 4092 4145 4191 4238 4254 [...] (733 flits)
Class 0:
Remaining flits: 2731 2926 3149 3311 3543 3657 3660 3788 3789 3853 [...] (680 flits)
Measured flits: 3788 3789 3853 4005 4069 4092 4145 4191 4238 4254 [...] (673 flits)
Class 0:
Remaining flits: 2731 2926 3311 3543 3657 3660 3788 3789 3853 4005 [...] (624 flits)
Measured flits: 3788 3789 3853 4005 4069 4092 4145 4191 4238 4254 [...] (618 flits)
Class 0:
Remaining flits: 2731 2926 3311 3543 3657 3660 3789 4005 4069 4092 [...] (560 flits)
Measured flits: 3789 4005 4069 4092 4145 4191 4238 4254 4322 4366 [...] (554 flits)
Class 0:
Remaining flits: 2731 2926 3311 3660 3789 4005 4069 4092 4191 4238 [...] (500 flits)
Measured flits: 3789 4005 4069 4092 4191 4238 4254 4322 4366 4521 [...] (496 flits)
Class 0:
Remaining flits: 2731 2926 3311 3660 3789 4005 4069 4092 4191 4238 [...] (447 flits)
Measured flits: 3789 4005 4069 4092 4191 4238 4254 4322 4366 4521 [...] (443 flits)
Class 0:
Remaining flits: 2731 2926 3660 3789 4005 4069 4092 4191 4238 4322 [...] (394 flits)
Measured flits: 3789 4005 4069 4092 4191 4238 4322 4521 4569 4570 [...] (391 flits)
Class 0:
Remaining flits: 2926 3660 4005 4069 4092 4191 4238 4322 4569 4570 [...] (360 flits)
Measured flits: 4005 4069 4092 4191 4238 4322 4569 4570 4584 4592 [...] (358 flits)
Class 0:
Remaining flits: 2926 4069 4092 4191 4238 4569 4570 4584 4644 4645 [...] (312 flits)
Measured flits: 4069 4092 4191 4238 4569 4570 4584 4644 4645 4646 [...] (311 flits)
Class 0:
Remaining flits: 2926 4191 4238 4569 4584 4644 4645 4646 4656 4727 [...] (266 flits)
Measured flits: 4191 4238 4569 4584 4644 4645 4646 4656 4727 4768 [...] (265 flits)
Class 0:
Remaining flits: 2926 4191 4238 4584 4644 4645 4646 4656 4727 4768 [...] (223 flits)
Measured flits: 4191 4238 4584 4644 4645 4646 4656 4727 4768 4891 [...] (222 flits)
Class 0:
Remaining flits: 2926 4191 4584 4644 4646 4656 4727 4768 4891 4965 [...] (181 flits)
Measured flits: 4191 4584 4644 4646 4656 4727 4768 4891 4965 5046 [...] (180 flits)
Class 0:
Remaining flits: 2926 4191 4584 4644 4646 4656 4727 4768 4891 4965 [...] (160 flits)
Measured flits: 4191 4584 4644 4646 4656 4727 4768 4891 4965 5046 [...] (159 flits)
Class 0:
Remaining flits: 4191 4584 4644 4646 4656 4727 4768 4891 4965 5047 [...] (144 flits)
Measured flits: 4191 4584 4644 4646 4656 4727 4768 4891 4965 5047 [...] (144 flits)
Class 0:
Remaining flits: 4191 4644 4646 4656 4965 5047 5151 5269 5357 5420 [...] (113 flits)
Measured flits: 4191 4644 4646 4656 4965 5047 5151 5269 5357 5420 [...] (113 flits)
Class 0:
Remaining flits: 4191 4644 4646 4656 4965 5047 5269 5357 5420 5447 [...] (92 flits)
Measured flits: 4191 4644 4646 4656 4965 5047 5269 5357 5420 5447 [...] (92 flits)
Class 0:
Remaining flits: 4191 4644 4646 4656 4965 5047 5269 5357 5447 5501 [...] (71 flits)
Measured flits: 4191 4644 4646 4656 4965 5047 5269 5357 5447 5501 [...] (71 flits)
Class 0:
Remaining flits: 4646 4965 5269 5357 5447 5501 5601 5610 5809 5835 [...] (59 flits)
Measured flits: 4646 4965 5269 5357 5447 5501 5601 5610 5809 5835 [...] (59 flits)
Class 0:
Remaining flits: 4646 5269 5357 5501 5610 5809 5835 5923 6129 6202 [...] (52 flits)
Measured flits: 4646 5269 5357 5501 5610 5809 5835 5923 6129 6202 [...] (52 flits)
Class 0:
Remaining flits: 4646 5269 5357 5501 5610 5809 5835 5923 6129 6202 [...] (42 flits)
Measured flits: 4646 5269 5357 5501 5610 5809 5835 5923 6129 6202 [...] (42 flits)
Class 0:
Remaining flits: 4646 5269 5357 5610 5809 5835 5923 6129 6202 6339 [...] (32 flits)
Measured flits: 4646 5269 5357 5610 5809 5835 5923 6129 6202 6339 [...] (32 flits)
Class 0:
Remaining flits: 4646 5269 5357 5809 5835 5923 6129 6202 6339 6437 [...] (25 flits)
Measured flits: 4646 5269 5357 5809 5835 5923 6129 6202 6339 6437 [...] (25 flits)
Class 0:
Remaining flits: 4646 5269 5809 5835 5923 6129 6202 6437 6471 6499 [...] (22 flits)
Measured flits: 4646 5269 5809 5835 5923 6129 6202 6437 6471 6499 [...] (22 flits)
Class 0:
Remaining flits: 4646 5809 5835 6129 6202 6437 6471 6499 6668 6738 [...] (20 flits)
Measured flits: 4646 5809 5835 6129 6202 6437 6471 6499 6668 6738 [...] (20 flits)
Class 0:
Remaining flits: 5835 6129 6202 6437 6471 6499 6668 6738 6904 7025 [...] (17 flits)
Measured flits: 5835 6129 6202 6437 6471 6499 6668 6738 6904 7025 [...] (17 flits)
Class 0:
Remaining flits: 5835 6129 6202 6437 6471 6499 6668 6738 6904 7025 [...] (17 flits)
Measured flits: 5835 6129 6202 6437 6471 6499 6668 6738 6904 7025 [...] (17 flits)
Class 0:
Remaining flits: 6437 6499 6668 6738 6904 7025 7095 7107 7148 7175 [...] (13 flits)
Measured flits: 6437 6499 6668 6738 6904 7025 7095 7107 7148 7175 [...] (13 flits)
Class 0:
Remaining flits: 6499 6668 6738 6904 7025 7095 7107 7148 7175 7443 [...] (12 flits)
Measured flits: 6499 6668 6738 6904 7025 7095 7107 7148 7175 7443 [...] (12 flits)
Class 0:
Remaining flits: 6668 6738 6904 7025 7095 7107 7148 7175 7443 7479 (10 flits)
Measured flits: 6668 6738 6904 7025 7095 7107 7148 7175 7443 7479 (10 flits)
Class 0:
Remaining flits: 6668 6738 6904 7095 7107 7175 7443 7479 (8 flits)
Measured flits: 6668 6738 6904 7095 7107 7175 7443 7479 (8 flits)
Class 0:
Remaining flits: 6738 6904 7095 7107 7175 7443 7479 (7 flits)
Measured flits: 6738 6904 7095 7107 7175 7443 7479 (7 flits)
Class 0:
Remaining flits: 6738 6904 7095 7107 7443 7479 (6 flits)
Measured flits: 6738 6904 7095 7107 7443 7479 (6 flits)
Class 0:
Remaining flits: 6738 6904 7095 7107 7443 7479 (6 flits)
Measured flits: 6738 6904 7095 7107 7443 7479 (6 flits)
Class 0:
Remaining flits: 6738 6904 7095 7107 7443 7479 (6 flits)
Measured flits: 6738 6904 7095 7107 7443 7479 (6 flits)
Class 0:
Remaining flits: 6738 6904 7095 7107 7443 7479 (6 flits)
Measured flits: 6738 6904 7095 7107 7443 7479 (6 flits)
Class 0:
Remaining flits: 7095 7107 7443 7479 (4 flits)
Measured flits: 7095 7107 7443 7479 (4 flits)
Class 0:
Remaining flits: 7095 7107 7443 7479 (4 flits)
Measured flits: 7095 7107 7443 7479 (4 flits)
Class 0:
Remaining flits: 7095 7107 7443 7479 (4 flits)
Measured flits: 7095 7107 7443 7479 (4 flits)
Class 0:
Remaining flits: 7095 7107 7443 7479 (4 flits)
Measured flits: 7095 7107 7443 7479 (4 flits)
Class 0:
Remaining flits: 7095 7107 7443 7479 (4 flits)
Measured flits: 7095 7107 7443 7479 (4 flits)
Class 0:
Remaining flits: 7095 7107 7443 7479 (4 flits)
Measured flits: 7095 7107 7443 7479 (4 flits)
Class 0:
Remaining flits: 7095 7107 7443 7479 (4 flits)
Measured flits: 7095 7107 7443 7479 (4 flits)
Class 0:
Remaining flits: 7095 7107 7443 7479 (4 flits)
Measured flits: 7095 7107 7443 7479 (4 flits)
Class 0:
Remaining flits: 7095 7107 7443 7479 (4 flits)
Measured flits: 7095 7107 7443 7479 (4 flits)
Class 0:
Remaining flits: 7095 7107 7443 7479 (4 flits)
Measured flits: 7095 7107 7443 7479 (4 flits)
Class 0:
Remaining flits: 7095 7107 7443 7479 (4 flits)
Measured flits: 7095 7107 7443 7479 (4 flits)
Class 0:
Remaining flits: 7095 7107 7443 7479 (4 flits)
Measured flits: 7095 7107 7443 7479 (4 flits)
Class 0:
Remaining flits: 7095 7107 7443 7479 (4 flits)
Measured flits: 7095 7107 7443 7479 (4 flits)
Class 0:
Remaining flits: 7095 7107 7443 7479 (4 flits)
Measured flits: 7095 7107 7443 7479 (4 flits)
Class 0:
Remaining flits: 7095 7107 7443 7479 (4 flits)
Measured flits: 7095 7107 7443 7479 (4 flits)
Class 0:
Remaining flits: 7095 7107 7443 7479 (4 flits)
Measured flits: 7095 7107 7443 7479 (4 flits)
Class 0:
Remaining flits: 7095 7107 7443 7479 (4 flits)
Measured flits: 7095 7107 7443 7479 (4 flits)
Class 0:
Remaining flits: 7095 7107 7443 7479 (4 flits)
Measured flits: 7095 7107 7443 7479 (4 flits)
Class 0:
Remaining flits: 7095 7107 7443 7479 (4 flits)
Measured flits: 7095 7107 7443 7479 (4 flits)
Class 0:
Remaining flits: 7095 7107 7443 7479 (4 flits)
Measured flits: 7095 7107 7443 7479 (4 flits)
Class 0:
Remaining flits: 7095 7107 7443 7479 (4 flits)
Measured flits: 7095 7107 7443 7479 (4 flits)
Class 0:
Remaining flits: 7095 7107 7443 7479 (4 flits)
Measured flits: 7095 7107 7443 7479 (4 flits)
Class 0:
Remaining flits: 7095 7107 7443 7479 (4 flits)
Measured flits: 7095 7107 7443 7479 (4 flits)
Class 0:
Remaining flits: 7095 7107 7443 7479 (4 flits)
Measured flits: 7095 7107 7443 7479 (4 flits)
Class 0:
Remaining flits: 7095 7107 7443 7479 (4 flits)
Measured flits: 7095 7107 7443 7479 (4 flits)
Class 0:
Remaining flits: 7095 7107 7443 7479 (4 flits)
Measured flits: 7095 7107 7443 7479 (4 flits)
Class 0:
Remaining flits: 7095 7107 7443 7479 (4 flits)
Measured flits: 7095 7107 7443 7479 (4 flits)
Class 0:
Remaining flits: 7095 7107 7443 7479 (4 flits)
Measured flits: 7095 7107 7443 7479 (4 flits)
Class 0:
Remaining flits: 7095 7107 7443 7479 (4 flits)
Measured flits: 7095 7107 7443 7479 (4 flits)
Class 0:
Remaining flits: 7095 7107 7443 7479 (4 flits)
Measured flits: 7095 7107 7443 7479 (4 flits)
Class 0:
Remaining flits: 7095 7107 7443 7479 (4 flits)
Measured flits: 7095 7107 7443 7479 (4 flits)
Class 0:
Remaining flits: 7095 7107 7443 7479 (4 flits)
Measured flits: 7095 7107 7443 7479 (4 flits)
Class 0:
Remaining flits: 7095 7107 7443 7479 (4 flits)
Measured flits: 7095 7107 7443 7479 (4 flits)
Class 0:
Remaining flits: 7095 7107 7443 7479 (4 flits)
Measured flits: 7095 7107 7443 7479 (4 flits)
Class 0:
Remaining flits: 7095 7107 7443 7479 (4 flits)
Measured flits: 7095 7107 7443 7479 (4 flits)
Class 0:
Remaining flits: 7095 7107 7443 7479 (4 flits)
Measured flits: 7095 7107 7443 7479 (4 flits)
Class 0:
Remaining flits: 7095 7107 7443 7479 (4 flits)
Measured flits: 7095 7107 7443 7479 (4 flits)
Class 0:
Remaining flits: 7095 7107 7443 7479 (4 flits)
Measured flits: 7095 7107 7443 7479 (4 flits)
Class 0:
Remaining flits: 7095 7107 7443 7479 (4 flits)
Measured flits: 7095 7107 7443 7479 (4 flits)
Class 0:
Remaining flits: 7095 7107 7443 7479 (4 flits)
Measured flits: 7095 7107 7443 7479 (4 flits)
Class 0:
Remaining flits: 7095 7107 7443 7479 (4 flits)
Measured flits: 7095 7107 7443 7479 (4 flits)
Class 0:
Remaining flits: 7095 7107 7443 7479 (4 flits)
Measured flits: 7095 7107 7443 7479 (4 flits)
Class 0:
Remaining flits: 7095 7107 7443 7479 (4 flits)
Measured flits: 7095 7107 7443 7479 (4 flits)
Class 0:
Remaining flits: 7095 7107 7443 7479 (4 flits)
Measured flits: 7095 7107 7443 7479 (4 flits)
Class 0:
Remaining flits: 7095 7107 7443 7479 (4 flits)
Measured flits: 7095 7107 7443 7479 (4 flits)
Class 0:
Remaining flits: 7095 7107 7443 7479 (4 flits)
Measured flits: 7095 7107 7443 7479 (4 flits)
Class 0:
Remaining flits: 7095 7107 7443 7479 (4 flits)
Measured flits: 7095 7107 7443 7479 (4 flits)
Class 0:
Remaining flits: 7095 7107 7443 7479 (4 flits)
Measured flits: 7095 7107 7443 7479 (4 flits)
Time taken is 1600 cycles
====== Traffic class 0 ======

Total number of flits generated = 7631, changed lanes = 7556
Overall minimum packet latency = 7 (1 samples)
Overall average packet latency = 197.073 (1 samples)
Overall maximum packet latency = 650 (1 samples)
Overall minimum network latency = 8 (1 samples)
Overall average network latency = 198.073 (1 samples)
Overall maximum network latency = 651 (1 samples)
Overall minimum flit latency = 8 (1 samples)
Overall average flit latency = 202.166 (1 samples)
Overall maximum flit latency = 682 (1 samples)
Overall minimum fragmentation = 0 (1 samples)
Overall average fragmentation = 0 (1 samples)
Overall maximum fragmentation = 0 (1 samples)
Overall minimum injected packet rate = 0.0166667 (1 samples)
Overall average injected packet rate = 0.0501693 (1 samples)
Overall maximum injected packet rate = 0.0933333 (1 samples)
Overall minimum accepted packet rate = 0.0133333 (1 samples)
Overall average accepted packet rate = 0.0415755 (1 samples)
Overall maximum accepted packet rate = 0.0766667 (1 samples)
Overall minimum injected flit rate = 0.0166667 (1 samples)
Overall average injected flit rate = 0.0501693 (1 samples)
Overall maximum injected flit rate = 0.0933333 (1 samples)
Overall minimum accepted flit rate = 0.0133333 (1 samples)
Overall average accepted flit rate = 0.0415755 (1 samples)
Overall maximum accepted flit rate = 0.0766667 (1 samples)
Overall average injected packet size = 1 (1 samples)
Overall average accepted packet size = 1 (1 samples)
Overall average hops = 11.7586 (1 samples)
Overall throughput of the network (flits/cycle) = 25.4233
Overall throughput of the network (packets/cycle) = 25.4233
Total run time 274.745
