make: Nothing to be done for 'all'.
Master: Running timer....
Master: Running SRC....
BEGIN Configuration File: ./examples/bitrev
// Topology

topology = mesh;
k = 2;
n = 2;

// Routing
routing_function = dor;

// Flow control
num_vcs     = 4;
vc_buf_size = 4;
wait_for_tail_credit = 0;

// Router architecture
vc_allocator = islip;
sw_allocator = islip;
alloc_iters  = 1;

credit_delay   = 1;
routing_delay  = 1;
vc_alloc_delay = 1;
sw_alloc_delay = 1;

input_speedup     = 1;
output_speedup    = 1;
internal_speedup  = 1.0;

vc_busy_when_full = 0;

// Traffic
traffic = uniform;
packet_size = 1;

// Simulation
sim_type = throughput;

injection_rate = 0.05;

END Configuration File: ./examples/bitrev
===== Time: 1000 =====
Class 0:
Minimum packet latency = 7
Average packet latency = 17.5655
Maximum packet latency = 36
Minimum network latency = 8
Average network latency = 18.5655
Maximum network latency = 37
Slowest packet = 66
Minimum flit latency = 8
Average flit latency = 18.5655
Maximum flit latency = 37
Slowest flit = 66
Minimum fragmentation = 0
Average fragmentation = 0
Maximum fragmentation = 0
Minimum injected packet rate = 0.038 (at node 2)
Average injected packet rate = 0.04325
Maximum injected packet rate = 0.048 (at node 1)
Minimum accepted packet rate = 0.032 (at node 1)
Average accepted packet rate = 0.042
Maximum accepted packet rate = 0.051 (at node 3)
Minimum injected flit rate = 0.038 (at node 2)
Average injected flit rate = 0.04325
Maximum injected flit rate = 0.048 (at node 1)
Minimum accepted flit rate = 0.032 (at node 1)
Average accepted flit rate = 0.042
Maximum accepted flit rate = 0.051 (at node 3)
Total number of injected packets = 173
Total number of injected flits = 173
Average injected packet length = 1
Total number of accepted packets = 168
Total number of accepted flits = 168
Average accepted packet length = 1
Total in-flight flits = 5 (0 measured)
===== Time: 2000 =====
Class 0:
Minimum packet latency = 7
Average packet latency = 17.8734
Maximum packet latency = 41
Minimum network latency = 8
Average network latency = 18.8734
Maximum network latency = 42
Slowest packet = 359
Minimum flit latency = 8
Average flit latency = 18.8734
Maximum flit latency = 42
Slowest flit = 359
Minimum fragmentation = 0
Average fragmentation = 0
Maximum fragmentation = 0
Minimum injected packet rate = 0.044 (at node 0)
Average injected packet rate = 0.049625
Maximum injected packet rate = 0.0555 (at node 1)
Minimum accepted packet rate = 0.0475 (at node 0)
Average accepted packet rate = 0.049375
Maximum accepted packet rate = 0.0505 (at node 2)
Minimum injected flit rate = 0.044 (at node 0)
Average injected flit rate = 0.049625
Maximum injected flit rate = 0.0555 (at node 1)
Minimum accepted flit rate = 0.0475 (at node 0)
Average accepted flit rate = 0.049375
Maximum accepted flit rate = 0.0505 (at node 2)
Total number of injected packets = 397
Total number of injected flits = 397
Average injected packet length = 1
Total number of accepted packets = 395
Total number of accepted flits = 395
Average accepted packet length = 1
Total in-flight flits = 2 (0 measured)
===== Time: 3000 =====
Class 0:
Minimum packet latency = 7
Average packet latency = 19.7933
Maximum packet latency = 135
Minimum network latency = 8
Average network latency = 20.7933
Maximum network latency = 136
Slowest packet = 445
Minimum flit latency = 8
Average flit latency = 20.7933
Maximum flit latency = 136
Slowest flit = 445
Minimum fragmentation = 0
Average fragmentation = 0
Maximum fragmentation = 0
Minimum injected packet rate = 0.04 (at node 2)
Average injected packet rate = 0.045
Maximum injected packet rate = 0.049 (at node 0)
Minimum accepted packet rate = 0.042 (at node 1)
Average accepted packet rate = 0.04475
Maximum accepted packet rate = 0.048 (at node 0)
Minimum injected flit rate = 0.04 (at node 2)
Average injected flit rate = 0.045
Maximum injected flit rate = 0.049 (at node 0)
Minimum accepted flit rate = 0.042 (at node 1)
Average accepted flit rate = 0.04475
Maximum accepted flit rate = 0.048 (at node 0)
Total number of injected packets = 180
Total number of injected flits = 180
Average injected packet length = 1
Total number of accepted packets = 179
Total number of accepted flits = 179
Average accepted packet length = 1
Total in-flight flits = 3 (0 measured)
===== Time: 4000 =====
Class 0:
Minimum packet latency = 7
Average packet latency = 18.8069
Maximum packet latency = 40
Minimum network latency = 8
Average network latency = 19.8069
Maximum network latency = 41
Slowest packet = 663
Minimum flit latency = 8
Average flit latency = 19.8683
Maximum flit latency = 41
Slowest flit = 663
Minimum fragmentation = 0
Average fragmentation = 0
Maximum fragmentation = 0
Minimum injected packet rate = 0.038 (at node 1)
Average injected packet rate = 0.05125
Maximum injected packet rate = 0.057 (at node 3)
Minimum accepted packet rate = 0.045 (at node 2)
Average accepted packet rate = 0.05125
Maximum accepted packet rate = 0.056 (at node 0)
Minimum injected flit rate = 0.038 (at node 1)
Average injected flit rate = 0.05125
Maximum injected flit rate = 0.057 (at node 3)
Minimum accepted flit rate = 0.045 (at node 2)
Average accepted flit rate = 0.05125
Maximum accepted flit rate = 0.056 (at node 0)
Total number of injected packets = 205
Total number of injected flits = 205
Average injected packet length = 1
Total number of accepted packets = 205
Total number of accepted flits = 205
Average accepted packet length = 1
Total in-flight flits = 3 (3 measured)
===== Time: 5000 =====
Class 0:
Minimum packet latency = 7
Average packet latency = 18.9579
Maximum packet latency = 76
Minimum network latency = 8
Average network latency = 19.9579
Maximum network latency = 77
Slowest packet = 867
Minimum flit latency = 8
Average flit latency = 19.9896
Maximum flit latency = 77
Slowest flit = 867
Minimum fragmentation = 0
Average fragmentation = 0
Maximum fragmentation = 0
Minimum injected packet rate = 0.0375 (at node 1)
Average injected packet rate = 0.047875
Maximum injected packet rate = 0.0535 (at node 2)
Minimum accepted packet rate = 0.042 (at node 2)
Average accepted packet rate = 0.047875
Maximum accepted packet rate = 0.0515 (at node 1)
Minimum injected flit rate = 0.0375 (at node 1)
Average injected flit rate = 0.047875
Maximum injected flit rate = 0.0535 (at node 2)
Minimum accepted flit rate = 0.042 (at node 2)
Average accepted flit rate = 0.047875
Maximum accepted flit rate = 0.0515 (at node 1)
Total number of injected packets = 383
Total number of injected flits = 383
Average injected packet length = 1
Total number of accepted packets = 383
Total number of accepted flits = 383
Average accepted packet length = 1
Total in-flight flits = 3 (3 measured)
===== Time: 6000 =====
Class 0:
Minimum packet latency = 7
Average packet latency = 18.309
Maximum packet latency = 76
Minimum network latency = 8
Average network latency = 19.309
Maximum network latency = 77
Slowest packet = 867
Minimum flit latency = 8
Average flit latency = 19.3322
Maximum flit latency = 77
Slowest flit = 867
Minimum fragmentation = 0
Average fragmentation = 0
Maximum fragmentation = 0
Minimum injected packet rate = 0.045 (at node 1)
Average injected packet rate = 0.0505833
Maximum injected packet rate = 0.0543333 (at node 0)
Minimum accepted packet rate = 0.0433333 (at node 2)
Average accepted packet rate = 0.0504167
Maximum accepted packet rate = 0.056 (at node 1)
Minimum injected flit rate = 0.045 (at node 1)
Average injected flit rate = 0.0505833
Maximum injected flit rate = 0.0543333 (at node 0)
Minimum accepted flit rate = 0.0433333 (at node 2)
Average accepted flit rate = 0.0504167
Maximum accepted flit rate = 0.056 (at node 1)
Total number of injected packets = 607
Total number of injected flits = 607
Average injected packet length = 1
Total number of accepted packets = 605
Total number of accepted flits = 605
Average accepted packet length = 1
Total in-flight flits = 5 (5 measured)
===== Time: 7000 =====
Class 0:
Minimum packet latency = 7
Average packet latency = 18.4539
Maximum packet latency = 76
Minimum network latency = 8
Average network latency = 19.4539
Maximum network latency = 77
Slowest packet = 867
Minimum flit latency = 8
Average flit latency = 19.4708
Maximum flit latency = 77
Slowest flit = 867
Minimum fragmentation = 0
Average fragmentation = 0
Maximum fragmentation = 0
Minimum injected packet rate = 0.04275 (at node 1)
Average injected packet rate = 0.05025
Maximum injected packet rate = 0.0555 (at node 0)
Minimum accepted packet rate = 0.04675 (at node 2)
Average accepted packet rate = 0.0503125
Maximum accepted packet rate = 0.053 (at node 1)
Minimum injected flit rate = 0.04275 (at node 1)
Average injected flit rate = 0.05025
Maximum injected flit rate = 0.0555 (at node 0)
Minimum accepted flit rate = 0.04675 (at node 2)
Average accepted flit rate = 0.0503125
Maximum accepted flit rate = 0.053 (at node 1)
Total number of injected packets = 804
Total number of injected flits = 804
Average injected packet length = 1
Total number of accepted packets = 805
Total number of accepted flits = 805
Average accepted packet length = 1
Total in-flight flits = 2 (2 measured)
===== Time: 8000 =====
Class 0:
Minimum packet latency = 7
Average packet latency = 18.3454
Maximum packet latency = 76
Minimum network latency = 8
Average network latency = 19.3454
Maximum network latency = 77
Slowest packet = 867
Minimum flit latency = 8
Average flit latency = 19.3594
Maximum flit latency = 77
Slowest flit = 867
Minimum fragmentation = 0
Average fragmentation = 0
Maximum fragmentation = 0
Minimum injected packet rate = 0.0462 (at node 1)
Average injected packet rate = 0.04975
Maximum injected packet rate = 0.0522 (at node 0)
Minimum accepted packet rate = 0.0478 (at node 2)
Average accepted packet rate = 0.0498
Maximum accepted packet rate = 0.0522 (at node 1)
Minimum injected flit rate = 0.0462 (at node 1)
Average injected flit rate = 0.04975
Maximum injected flit rate = 0.0522 (at node 0)
Minimum accepted flit rate = 0.0478 (at node 2)
Average accepted flit rate = 0.0498
Maximum accepted flit rate = 0.0522 (at node 1)
Total number of injected packets = 995
Total number of injected flits = 995
Average injected packet length = 1
Total number of accepted packets = 996
Total number of accepted flits = 996
Average accepted packet length = 1
Total in-flight flits = 2 (2 measured)
===== Time: 9000 =====
Class 0:
Minimum packet latency = 7
Average packet latency = 18.3969
Maximum packet latency = 76
Minimum network latency = 8
Average network latency = 19.3969
Maximum network latency = 77
Slowest packet = 867
Minimum flit latency = 8
Average flit latency = 19.4086
Maximum flit latency = 77
Slowest flit = 867
Minimum fragmentation = 0
Average fragmentation = 0
Maximum fragmentation = 0
Minimum injected packet rate = 0.047 (at node 1)
Average injected packet rate = 0.0494583
Maximum injected packet rate = 0.0513333 (at node 2)
Minimum accepted packet rate = 0.0466667 (at node 2)
Average accepted packet rate = 0.04925
Maximum accepted packet rate = 0.0518333 (at node 1)
Minimum injected flit rate = 0.047 (at node 1)
Average injected flit rate = 0.0494583
Maximum injected flit rate = 0.0513333 (at node 2)
Minimum accepted flit rate = 0.0466667 (at node 2)
Average accepted flit rate = 0.04925
Maximum accepted flit rate = 0.0518333 (at node 1)
Total number of injected packets = 1187
Total number of injected flits = 1187
Average injected packet length = 1
Total number of accepted packets = 1182
Total number of accepted flits = 1182
Average accepted packet length = 1
Total in-flight flits = 8 (8 measured)
Draining remaining packets ...
Class 0:
Remaining flits: 1755 1759 1760 1762 1763 (5 flits)
Measured flits: 1755 1759 1760 1762 1763 (5 flits)
Class 0:
Remaining flits: 1759 1762 1763 (3 flits)
Measured flits: 1759 1762 1763 (3 flits)
Class 0:
Remaining flits: 1762 1763 (2 flits)
Measured flits: 1762 1763 (2 flits)
Class 0:
Remaining flits: (0 flits)
Measured flits: (0 flits)
Class 0:
Remaining flits: (0 flits)
Measured flits: (0 flits)
Class 0:
Remaining flits: (0 flits)
Measured flits: (0 flits)
Class 0:
Remaining flits: (0 flits)
Measured flits: (0 flits)
Class 0:
Remaining flits: (0 flits)
Measured flits: (0 flits)
Class 0:
Remaining flits: (0 flits)
Measured flits: (0 flits)
Class 0:
Remaining flits: (0 flits)
Measured flits: (0 flits)
Class 0:
Remaining flits: (0 flits)
Measured flits: (0 flits)
Class 0:
Remaining flits: (0 flits)
Measured flits: (0 flits)
Class 0:
Remaining flits: (0 flits)
Measured flits: (0 flits)
Class 0:
Remaining flits: (0 flits)
Measured flits: (0 flits)
Class 0:
Remaining flits: (0 flits)
Measured flits: (0 flits)
Class 0:
Remaining flits: (0 flits)
Measured flits: (0 flits)
Class 0:
Remaining flits: (0 flits)
Measured flits: (0 flits)
Class 0:
Remaining flits: (0 flits)
Measured flits: (0 flits)
Class 0:
Remaining flits: (0 flits)
Measured flits: (0 flits)
Class 0:
Remaining flits: (0 flits)
Measured flits: (0 flits)
Class 0:
Remaining flits: (0 flits)
Measured flits: (0 flits)
Class 0:
Remaining flits: (0 flits)
Measured flits: (0 flits)
Class 0:
Remaining flits: (0 flits)
Measured flits: (0 flits)
Class 0:
Remaining flits: (0 flits)
Measured flits: (0 flits)
Class 0:
Remaining flits: (0 flits)
Measured flits: (0 flits)
Class 0:
Remaining flits: (0 flits)
Measured flits: (0 flits)
Class 0:
Remaining flits: (0 flits)
Measured flits: (0 flits)
Class 0:
Remaining flits: (0 flits)
Measured flits: (0 flits)
Class 0:
Remaining flits: (0 flits)
Measured flits: (0 flits)
Class 0:
Remaining flits: (0 flits)
Measured flits: (0 flits)
Class 0:
Remaining flits: (0 flits)
Measured flits: (0 flits)
Class 0:
Remaining flits: (0 flits)
Measured flits: (0 flits)
Class 0:
Remaining flits: (0 flits)
Measured flits: (0 flits)
Class 0:
Remaining flits: (0 flits)
Measured flits: (0 flits)
Class 0:
Remaining flits: (0 flits)
Measured flits: (0 flits)
Class 0:
Remaining flits: (0 flits)
Measured flits: (0 flits)
Class 0:
Remaining flits: (0 flits)
Measured flits: (0 flits)
Class 0:
Remaining flits: (0 flits)
Measured flits: (0 flits)
Class 0:
Remaining flits: (0 flits)
Measured flits: (0 flits)
Class 0:
Remaining flits: (0 flits)
Measured flits: (0 flits)
Class 0:
Remaining flits: (0 flits)
Measured flits: (0 flits)
Class 0:
Remaining flits: (0 flits)
Measured flits: (0 flits)
Class 0:
Remaining flits: (0 flits)
Measured flits: (0 flits)
Class 0:
Remaining flits: (0 flits)
Measured flits: (0 flits)
Class 0:
Remaining flits: (0 flits)
Measured flits: (0 flits)
Class 0:
Remaining flits: (0 flits)
Measured flits: (0 flits)
Class 0:
Remaining flits: (0 flits)
Measured flits: (0 flits)
Class 0:
Remaining flits: (0 flits)
Measured flits: (0 flits)
Class 0:
Remaining flits: (0 flits)
Measured flits: (0 flits)
Class 0:
Remaining flits: (0 flits)
Measured flits: (0 flits)
Class 0:
Remaining flits: (0 flits)
Measured flits: (0 flits)
Class 0:
Remaining flits: (0 flits)
Measured flits: (0 flits)
Class 0:
Remaining flits: (0 flits)
Measured flits: (0 flits)
Class 0:
Remaining flits: (0 flits)
Measured flits: (0 flits)
Class 0:
Remaining flits: (0 flits)
Measured flits: (0 flits)
Class 0:
Remaining flits: (0 flits)
Measured flits: (0 flits)
Class 0:
Remaining flits: (0 flits)
Measured flits: (0 flits)
Class 0:
Remaining flits: (0 flits)
Measured flits: (0 flits)
Class 0:
Remaining flits: (0 flits)
Measured flits: (0 flits)
Class 0:
Remaining flits: (0 flits)
Measured flits: (0 flits)
Class 0:
Remaining flits: (0 flits)
Measured flits: (0 flits)
Class 0:
Remaining flits: (0 flits)
Measured flits: (0 flits)
Class 0:
Remaining flits: (0 flits)
Measured flits: (0 flits)
Class 0:
Remaining flits: (0 flits)
Measured flits: (0 flits)
Class 0:
Remaining flits: (0 flits)
Measured flits: (0 flits)
Class 0:
Remaining flits: (0 flits)
Measured flits: (0 flits)
Class 0:
Remaining flits: (0 flits)
Measured flits: (0 flits)
Class 0:
Remaining flits: (0 flits)
Measured flits: (0 flits)
Class 0:
Remaining flits: (0 flits)
Measured flits: (0 flits)
Class 0:
Remaining flits: (0 flits)
Measured flits: (0 flits)
Class 0:
Remaining flits: (0 flits)
Measured flits: (0 flits)
Class 0:
Remaining flits: (0 flits)
Measured flits: (0 flits)
Class 0:
Remaining flits: (0 flits)
Measured flits: (0 flits)
Class 0:
Remaining flits: (0 flits)
Measured flits: (0 flits)
Class 0:
Remaining flits: (0 flits)
Measured flits: (0 flits)
Class 0:
Remaining flits: (0 flits)
Measured flits: (0 flits)
Class 0:
Remaining flits: (0 flits)
Measured flits: (0 flits)
Class 0:
Remaining flits: (0 flits)
Measured flits: (0 flits)
Class 0:
Remaining flits: (0 flits)
Measured flits: (0 flits)
Class 0:
Remaining flits: (0 flits)
Measured flits: (0 flits)
Class 0:
Remaining flits: (0 flits)
Measured flits: (0 flits)
Class 0:
Remaining flits: (0 flits)
Measured flits: (0 flits)
Class 0:
Remaining flits: (0 flits)
Measured flits: (0 flits)
Class 0:
Remaining flits: (0 flits)
Measured flits: (0 flits)
Class 0:
Remaining flits: (0 flits)
Measured flits: (0 flits)
Class 0:
Remaining flits: (0 flits)
Measured flits: (0 flits)
Class 0:
Remaining flits: (0 flits)
Measured flits: (0 flits)
Class 0:
Remaining flits: (0 flits)
Measured flits: (0 flits)
Class 0:
Remaining flits: (0 flits)
Measured flits: (0 flits)
Class 0:
Remaining flits: (0 flits)
Measured flits: (0 flits)
Class 0:
Remaining flits: (0 flits)
Measured flits: (0 flits)
Class 0:
Remaining flits: (0 flits)
Measured flits: (0 flits)
Class 0:
Remaining flits: (0 flits)
Measured flits: (0 flits)
Class 0:
Remaining flits: (0 flits)
Measured flits: (0 flits)
Class 0:
Remaining flits: (0 flits)
Measured flits: (0 flits)
Class 0:
Remaining flits: (0 flits)
Measured flits: (0 flits)
Class 0:
Remaining flits: (0 flits)
Measured flits: (0 flits)
Class 0:
Remaining flits: (0 flits)
Measured flits: (0 flits)
Class 0:
Remaining flits: (0 flits)
Measured flits: (0 flits)
Class 0:
Remaining flits: (0 flits)
Measured flits: (0 flits)
Class 0:
Remaining flits: (0 flits)
Measured flits: (0 flits)
Time taken is 10000 cycles
====== Traffic class 0 ======

Total number of flits generated = 1764, changed lanes = 1569
Overall minimum packet latency = 7 (1 samples)
Overall average packet latency = 18.4693 (1 samples)
Overall maximum packet latency = 76 (1 samples)
Overall minimum network latency = 8 (1 samples)
Overall average network latency = 19.4693 (1 samples)
Overall maximum network latency = 77 (1 samples)
Overall minimum flit latency = 8 (1 samples)
Overall average flit latency = 19.4807 (1 samples)
Overall maximum flit latency = 77 (1 samples)
Overall minimum fragmentation = 0 (1 samples)
Overall average fragmentation = 0 (1 samples)
Overall maximum fragmentation = 0 (1 samples)
Overall minimum injected packet rate = 0.047 (1 samples)
Overall average injected packet rate = 0.0494583 (1 samples)
Overall maximum injected packet rate = 0.0513333 (1 samples)
Overall minimum accepted packet rate = 0.0466667 (1 samples)
Overall average accepted packet rate = 0.04925 (1 samples)
Overall maximum accepted packet rate = 0.0518333 (1 samples)
Overall minimum injected flit rate = 0.047 (1 samples)
Overall average injected flit rate = 0.0494583 (1 samples)
Overall maximum injected flit rate = 0.0513333 (1 samples)
Overall minimum accepted flit rate = 0.0466667 (1 samples)
Overall average accepted flit rate = 0.04925 (1 samples)
Overall maximum accepted flit rate = 0.0518333 (1 samples)
Overall average injected packet size = 1 (1 samples)
Overall average accepted packet size = 1 (1 samples)
Overall average hops = 1.97304 (1 samples)
Overall throughput of the network (flits/cycle) = 0.294
Overall throughput of the network (packets/cycle) = 0.294
Total run time 2.68226
