make: Nothing to be done for 'all'.
Master: Running timer....
Master: Running SRC....
BEGIN Configuration File: ./examples/bitrev
// Topology

topology = mesh;
k = 8;
n = 2;

// Routing
routing_function = dor;

// Flow control
num_vcs     = 4;
vc_buf_size = 4;
wait_for_tail_credit = 0;

// Router architecture
vc_allocator = islip;
sw_allocator = islip;
alloc_iters  = 1;

credit_delay   = 1;
routing_delay  = 1;
vc_alloc_delay = 1;
sw_alloc_delay = 1;

input_speedup     = 1;
output_speedup    = 1;
internal_speedup  = 1.0;

vc_busy_when_full = 0;

// Traffic
traffic = uniform;
packet_size = 1;

// Simulation
sim_type = throughput;

injection_rate = 0.05;

END Configuration File: ./examples/bitrev
===== Time: 1000 =====
Class 0:
Minimum packet latency = 7
Average packet latency = 63.9022
Maximum packet latency = 194
Minimum network latency = 8
Average network latency = 64.9022
Maximum network latency = 195
Slowest packet = 1217
Minimum flit latency = 8
Average flit latency = 64.9022
Maximum flit latency = 195
Slowest flit = 1217
Minimum fragmentation = 0
Average fragmentation = 0
Maximum fragmentation = 0
Minimum injected packet rate = 0.034 (at node 9)
Average injected packet rate = 0.0495312
Maximum injected packet rate = 0.064 (at node 41)
Minimum accepted packet rate = 0.032 (at node 23)
Average accepted packet rate = 0.0464688
Maximum accepted packet rate = 0.062 (at node 51)
Minimum injected flit rate = 0.034 (at node 9)
Average injected flit rate = 0.0495312
Maximum injected flit rate = 0.064 (at node 41)
Minimum accepted flit rate = 0.032 (at node 23)
Average accepted flit rate = 0.0464688
Maximum accepted flit rate = 0.062 (at node 51)
Total number of injected packets = 3170
Total number of injected flits = 3170
Average injected packet length = 1
Total number of accepted packets = 2974
Total number of accepted flits = 2974
Average accepted packet length = 1
Total in-flight flits = 196 (0 measured)
===== Time: 2000 =====
Class 0:
Minimum packet latency = 7
Average packet latency = 64.9163
Maximum packet latency = 259
Minimum network latency = 8
Average network latency = 65.9163
Maximum network latency = 260
Slowest packet = 3934
Minimum flit latency = 8
Average flit latency = 65.9163
Maximum flit latency = 260
Slowest flit = 3934
Minimum fragmentation = 0
Average fragmentation = 0
Maximum fragmentation = 0
Minimum injected packet rate = 0.04 (at node 9)
Average injected packet rate = 0.0495469
Maximum injected packet rate = 0.0595 (at node 37)
Minimum accepted packet rate = 0.0365 (at node 52)
Average accepted packet rate = 0.0480703
Maximum accepted packet rate = 0.057 (at node 27)
Minimum injected flit rate = 0.04 (at node 9)
Average injected flit rate = 0.0495469
Maximum injected flit rate = 0.0595 (at node 37)
Minimum accepted flit rate = 0.0365 (at node 52)
Average accepted flit rate = 0.0480703
Maximum accepted flit rate = 0.057 (at node 27)
Total number of injected packets = 6342
Total number of injected flits = 6342
Average injected packet length = 1
Total number of accepted packets = 6153
Total number of accepted flits = 6153
Average accepted packet length = 1
Total in-flight flits = 189 (0 measured)
===== Time: 3000 =====
Class 0:
Minimum packet latency = 7
Average packet latency = 65.3799
Maximum packet latency = 177
Minimum network latency = 8
Average network latency = 66.3799
Maximum network latency = 178
Slowest packet = 7714
Minimum flit latency = 8
Average flit latency = 66.3799
Maximum flit latency = 178
Slowest flit = 7714
Minimum fragmentation = 0
Average fragmentation = 0
Maximum fragmentation = 0
Minimum injected packet rate = 0.035 (at node 14)
Average injected packet rate = 0.05
Maximum injected packet rate = 0.07 (at node 47)
Minimum accepted packet rate = 0.034 (at node 30)
Average accepted packet rate = 0.0495156
Maximum accepted packet rate = 0.064 (at node 6)
Minimum injected flit rate = 0.035 (at node 14)
Average injected flit rate = 0.05
Maximum injected flit rate = 0.07 (at node 47)
Minimum accepted flit rate = 0.034 (at node 30)
Average accepted flit rate = 0.0495156
Maximum accepted flit rate = 0.064 (at node 6)
Total number of injected packets = 3200
Total number of injected flits = 3200
Average injected packet length = 1
Total number of accepted packets = 3169
Total number of accepted flits = 3169
Average accepted packet length = 1
Total in-flight flits = 220 (0 measured)
===== Time: 4000 =====
Class 0:
Minimum packet latency = 7
Average packet latency = 66.2592
Maximum packet latency = 224
Minimum network latency = 8
Average network latency = 67.2592
Maximum network latency = 225
Slowest packet = 10976
Minimum flit latency = 8
Average flit latency = 68.2186
Maximum flit latency = 225
Slowest flit = 10976
Minimum fragmentation = 0
Average fragmentation = 0
Maximum fragmentation = 0
Minimum injected packet rate = 0.035 (at node 52)
Average injected packet rate = 0.05125
Maximum injected packet rate = 0.066 (at node 34)
Minimum accepted packet rate = 0.037 (at node 45)
Average accepted packet rate = 0.0515469
Maximum accepted packet rate = 0.072 (at node 24)
Minimum injected flit rate = 0.035 (at node 52)
Average injected flit rate = 0.05125
Maximum injected flit rate = 0.066 (at node 34)
Minimum accepted flit rate = 0.037 (at node 45)
Average accepted flit rate = 0.0515469
Maximum accepted flit rate = 0.072 (at node 24)
Total number of injected packets = 3280
Total number of injected flits = 3280
Average injected packet length = 1
Total number of accepted packets = 3299
Total number of accepted flits = 3299
Average accepted packet length = 1
Total in-flight flits = 201 (201 measured)
===== Time: 5000 =====
Class 0:
Minimum packet latency = 7
Average packet latency = 65.7192
Maximum packet latency = 224
Minimum network latency = 8
Average network latency = 66.7192
Maximum network latency = 225
Slowest packet = 10976
Minimum flit latency = 8
Average flit latency = 67.2259
Maximum flit latency = 225
Slowest flit = 10976
Minimum fragmentation = 0
Average fragmentation = 0
Maximum fragmentation = 0
Minimum injected packet rate = 0.038 (at node 52)
Average injected packet rate = 0.0505469
Maximum injected packet rate = 0.0635 (at node 43)
Minimum accepted packet rate = 0.0375 (at node 21)
Average accepted packet rate = 0.050625
Maximum accepted packet rate = 0.0605 (at node 24)
Minimum injected flit rate = 0.038 (at node 52)
Average injected flit rate = 0.0505469
Maximum injected flit rate = 0.0635 (at node 43)
Minimum accepted flit rate = 0.0375 (at node 21)
Average accepted flit rate = 0.050625
Maximum accepted flit rate = 0.0605 (at node 24)
Total number of injected packets = 6470
Total number of injected flits = 6470
Average injected packet length = 1
Total number of accepted packets = 6480
Total number of accepted flits = 6480
Average accepted packet length = 1
Total in-flight flits = 210 (210 measured)
===== Time: 6000 =====
Class 0:
Minimum packet latency = 7
Average packet latency = 65.9044
Maximum packet latency = 224
Minimum network latency = 8
Average network latency = 66.9044
Maximum network latency = 225
Slowest packet = 10976
Minimum flit latency = 8
Average flit latency = 67.2386
Maximum flit latency = 225
Slowest flit = 10976
Minimum fragmentation = 0
Average fragmentation = 0
Maximum fragmentation = 0
Minimum injected packet rate = 0.039 (at node 53)
Average injected packet rate = 0.0505
Maximum injected packet rate = 0.057 (at node 20)
Minimum accepted packet rate = 0.0406667 (at node 26)
Average accepted packet rate = 0.0505365
Maximum accepted packet rate = 0.0593333 (at node 38)
Minimum injected flit rate = 0.039 (at node 53)
Average injected flit rate = 0.0505
Maximum injected flit rate = 0.057 (at node 20)
Minimum accepted flit rate = 0.0406667 (at node 26)
Average accepted flit rate = 0.0505365
Maximum accepted flit rate = 0.0593333 (at node 38)
Total number of injected packets = 9696
Total number of injected flits = 9696
Average injected packet length = 1
Total number of accepted packets = 9703
Total number of accepted flits = 9703
Average accepted packet length = 1
Total in-flight flits = 213 (213 measured)
Draining remaining packets ...
Class 0:
Remaining flits: 18802 18811 18838 18862 18883 18886 18920 18939 18948 18955 [...] (186 flits)
Measured flits: 18802 18811 18838 18862 18883 18886 18920 18939 18948 18955 [...] (186 flits)
Class 0:
Remaining flits: 18802 18811 18838 18883 18886 18920 18955 18956 18967 18968 [...] (155 flits)
Measured flits: 18802 18811 18838 18883 18886 18920 18955 18956 18967 18968 [...] (155 flits)
Class 0:
Remaining flits: 18802 18811 18838 18920 18956 18967 18981 18989 18992 18996 [...] (121 flits)
Measured flits: 18802 18811 18838 18920 18956 18967 18981 18989 18992 18996 [...] (121 flits)
Class 0:
Remaining flits: 18802 18811 18838 18920 18956 18967 18981 18989 18992 18996 [...] (101 flits)
Measured flits: 18802 18811 18838 18920 18956 18967 18981 18989 18992 18996 [...] (101 flits)
Class 0:
Remaining flits: 18802 18811 18838 18956 18967 18989 18992 18996 19025 19060 [...] (73 flits)
Measured flits: 18802 18811 18838 18956 18967 18989 18992 18996 19025 19060 [...] (73 flits)
Class 0:
Remaining flits: 18811 18956 18989 18992 18996 19025 19060 19085 19092 19096 [...] (49 flits)
Measured flits: 18811 18956 18989 18992 18996 19025 19060 19085 19092 19096 [...] (49 flits)
Class 0:
Remaining flits: 18811 18992 19025 19060 19092 19119 19128 19137 19145 19148 [...] (29 flits)
Measured flits: 18811 18992 19025 19060 19092 19119 19128 19137 19145 19148 [...] (29 flits)
Class 0:
Remaining flits: 18811 18992 19025 19092 19145 19157 19161 19165 19166 19192 [...] (20 flits)
Measured flits: 18811 18992 19025 19092 19145 19157 19161 19165 19166 19192 [...] (20 flits)
Class 0:
Remaining flits: 18811 18992 19025 19145 19157 19161 19165 19166 19192 19205 [...] (17 flits)
Measured flits: 18811 18992 19025 19145 19157 19161 19165 19166 19192 19205 [...] (17 flits)
Class 0:
Remaining flits: 18811 18992 19025 19145 19157 19165 19166 19205 19210 19217 [...] (13 flits)
Measured flits: 18811 18992 19025 19145 19157 19165 19166 19205 19210 19217 [...] (13 flits)
Class 0:
Remaining flits: 18811 18992 19025 19145 19157 19166 19205 19230 (8 flits)
Measured flits: 18811 18992 19025 19145 19157 19166 19205 19230 (8 flits)
Class 0:
Remaining flits: 18811 18992 19025 19145 19157 19166 19205 19230 (8 flits)
Measured flits: 18811 18992 19025 19145 19157 19166 19205 19230 (8 flits)
Class 0:
Remaining flits: 18811 18992 19025 19145 19166 19205 19230 (7 flits)
Measured flits: 18811 18992 19025 19145 19166 19205 19230 (7 flits)
Class 0:
Remaining flits: 18811 18992 19025 19145 19205 (5 flits)
Measured flits: 18811 18992 19025 19145 19205 (5 flits)
Class 0:
Remaining flits: 18811 18992 19025 19145 19205 (5 flits)
Measured flits: 18811 18992 19025 19145 19205 (5 flits)
Class 0:
Remaining flits: 18811 18992 19025 19145 19205 (5 flits)
Measured flits: 18811 18992 19025 19145 19205 (5 flits)
Class 0:
Remaining flits: 18811 18992 19025 19145 19205 (5 flits)
Measured flits: 18811 18992 19025 19145 19205 (5 flits)
Class 0:
Remaining flits: 18811 18992 19025 19145 19205 (5 flits)
Measured flits: 18811 18992 19025 19145 19205 (5 flits)
Class 0:
Remaining flits: 18811 18992 19025 19145 19205 (5 flits)
Measured flits: 18811 18992 19025 19145 19205 (5 flits)
Class 0:
Remaining flits: 18811 18992 19025 19145 19205 (5 flits)
Measured flits: 18811 18992 19025 19145 19205 (5 flits)
Class 0:
Remaining flits: 18811 18992 19025 19145 19205 (5 flits)
Measured flits: 18811 18992 19025 19145 19205 (5 flits)
Class 0:
Remaining flits: 18811 18992 19025 19145 19205 (5 flits)
Measured flits: 18811 18992 19025 19145 19205 (5 flits)
Class 0:
Remaining flits: 18811 18992 19025 19145 19205 (5 flits)
Measured flits: 18811 18992 19025 19145 19205 (5 flits)
Class 0:
Remaining flits: 18811 18992 19025 19145 19205 (5 flits)
Measured flits: 18811 18992 19025 19145 19205 (5 flits)
Class 0:
Remaining flits: 18811 18992 19025 19145 19205 (5 flits)
Measured flits: 18811 18992 19025 19145 19205 (5 flits)
Class 0:
Remaining flits: 18811 18992 19025 19145 19205 (5 flits)
Measured flits: 18811 18992 19025 19145 19205 (5 flits)
Class 0:
Remaining flits: 18811 18992 19025 19145 19205 (5 flits)
Measured flits: 18811 18992 19025 19145 19205 (5 flits)
Class 0:
Remaining flits: 18811 18992 19025 19145 19205 (5 flits)
Measured flits: 18811 18992 19025 19145 19205 (5 flits)
Class 0:
Remaining flits: 18811 18992 19025 19145 19205 (5 flits)
Measured flits: 18811 18992 19025 19145 19205 (5 flits)
Class 0:
Remaining flits: 18811 18992 19025 19145 19205 (5 flits)
Measured flits: 18811 18992 19025 19145 19205 (5 flits)
Class 0:
Remaining flits: 18811 18992 19025 19145 19205 (5 flits)
Measured flits: 18811 18992 19025 19145 19205 (5 flits)
Class 0:
Remaining flits: 18811 18992 19025 19145 19205 (5 flits)
Measured flits: 18811 18992 19025 19145 19205 (5 flits)
Class 0:
Remaining flits: 18811 18992 19025 19145 19205 (5 flits)
Measured flits: 18811 18992 19025 19145 19205 (5 flits)
Class 0:
Remaining flits: 18811 18992 19025 19145 19205 (5 flits)
Measured flits: 18811 18992 19025 19145 19205 (5 flits)
Class 0:
Remaining flits: 18811 18992 19025 19145 19205 (5 flits)
Measured flits: 18811 18992 19025 19145 19205 (5 flits)
Class 0:
Remaining flits: 18811 18992 19025 19145 19205 (5 flits)
Measured flits: 18811 18992 19025 19145 19205 (5 flits)
Class 0:
Remaining flits: 18811 18992 19025 19145 19205 (5 flits)
Measured flits: 18811 18992 19025 19145 19205 (5 flits)
Class 0:
Remaining flits: 18811 18992 19025 19145 19205 (5 flits)
Measured flits: 18811 18992 19025 19145 19205 (5 flits)
Class 0:
Remaining flits: 18811 18992 19025 19145 19205 (5 flits)
Measured flits: 18811 18992 19025 19145 19205 (5 flits)
Class 0:
Remaining flits: 18811 18992 19025 19145 19205 (5 flits)
Measured flits: 18811 18992 19025 19145 19205 (5 flits)
Class 0:
Remaining flits: 18811 18992 19025 19145 19205 (5 flits)
Measured flits: 18811 18992 19025 19145 19205 (5 flits)
Class 0:
Remaining flits: 18811 18992 19025 19145 19205 (5 flits)
Measured flits: 18811 18992 19025 19145 19205 (5 flits)
Class 0:
Remaining flits: 18811 18992 19025 19145 19205 (5 flits)
Measured flits: 18811 18992 19025 19145 19205 (5 flits)
Class 0:
Remaining flits: 18811 18992 19025 19145 19205 (5 flits)
Measured flits: 18811 18992 19025 19145 19205 (5 flits)
Class 0:
Remaining flits: 18811 18992 19025 19145 19205 (5 flits)
Measured flits: 18811 18992 19025 19145 19205 (5 flits)
Class 0:
Remaining flits: 18811 18992 19025 19145 19205 (5 flits)
Measured flits: 18811 18992 19025 19145 19205 (5 flits)
Class 0:
Remaining flits: 18811 18992 19025 19145 19205 (5 flits)
Measured flits: 18811 18992 19025 19145 19205 (5 flits)
Class 0:
Remaining flits: 18811 18992 19025 19145 19205 (5 flits)
Measured flits: 18811 18992 19025 19145 19205 (5 flits)
Class 0:
Remaining flits: 18811 18992 19025 19145 19205 (5 flits)
Measured flits: 18811 18992 19025 19145 19205 (5 flits)
Class 0:
Remaining flits: 18811 18992 19025 19145 19205 (5 flits)
Measured flits: 18811 18992 19025 19145 19205 (5 flits)
Class 0:
Remaining flits: 18811 18992 19025 19145 19205 (5 flits)
Measured flits: 18811 18992 19025 19145 19205 (5 flits)
Class 0:
Remaining flits: 18811 18992 19025 19145 19205 (5 flits)
Measured flits: 18811 18992 19025 19145 19205 (5 flits)
Class 0:
Remaining flits: 18811 18992 19025 19145 19205 (5 flits)
Measured flits: 18811 18992 19025 19145 19205 (5 flits)
Class 0:
Remaining flits: 18811 18992 19025 19145 19205 (5 flits)
Measured flits: 18811 18992 19025 19145 19205 (5 flits)
Class 0:
Remaining flits: 18811 18992 19025 19145 19205 (5 flits)
Measured flits: 18811 18992 19025 19145 19205 (5 flits)
Class 0:
Remaining flits: 18811 18992 19025 19145 19205 (5 flits)
Measured flits: 18811 18992 19025 19145 19205 (5 flits)
Class 0:
Remaining flits: 18811 18992 19025 19145 19205 (5 flits)
Measured flits: 18811 18992 19025 19145 19205 (5 flits)
Class 0:
Remaining flits: 18811 18992 19025 19145 19205 (5 flits)
Measured flits: 18811 18992 19025 19145 19205 (5 flits)
Class 0:
Remaining flits: 18811 18992 19025 19145 19205 (5 flits)
Measured flits: 18811 18992 19025 19145 19205 (5 flits)
Class 0:
Remaining flits: 18811 18992 19025 19145 19205 (5 flits)
Measured flits: 18811 18992 19025 19145 19205 (5 flits)
Class 0:
Remaining flits: 18811 18992 19025 19145 19205 (5 flits)
Measured flits: 18811 18992 19025 19145 19205 (5 flits)
Class 0:
Remaining flits: 18811 18992 19025 19145 19205 (5 flits)
Measured flits: 18811 18992 19025 19145 19205 (5 flits)
Class 0:
Remaining flits: 18811 18992 19025 19145 19205 (5 flits)
Measured flits: 18811 18992 19025 19145 19205 (5 flits)
Class 0:
Remaining flits: 18811 18992 19025 19145 19205 (5 flits)
Measured flits: 18811 18992 19025 19145 19205 (5 flits)
Class 0:
Remaining flits: 18811 18992 19025 19145 19205 (5 flits)
Measured flits: 18811 18992 19025 19145 19205 (5 flits)
Class 0:
Remaining flits: 18811 18992 19025 19145 19205 (5 flits)
Measured flits: 18811 18992 19025 19145 19205 (5 flits)
Class 0:
Remaining flits: 18811 18992 19025 19145 19205 (5 flits)
Measured flits: 18811 18992 19025 19145 19205 (5 flits)
Class 0:
Remaining flits: 18811 18992 19025 19145 19205 (5 flits)
Measured flits: 18811 18992 19025 19145 19205 (5 flits)
Class 0:
Remaining flits: 18811 18992 19025 19145 19205 (5 flits)
Measured flits: 18811 18992 19025 19145 19205 (5 flits)
Class 0:
Remaining flits: 18811 18992 19025 19145 19205 (5 flits)
Measured flits: 18811 18992 19025 19145 19205 (5 flits)
Class 0:
Remaining flits: 18811 18992 19025 19145 19205 (5 flits)
Measured flits: 18811 18992 19025 19145 19205 (5 flits)
Class 0:
Remaining flits: 18811 18992 19025 19145 19205 (5 flits)
Measured flits: 18811 18992 19025 19145 19205 (5 flits)
Class 0:
Remaining flits: 18811 18992 19025 19145 19205 (5 flits)
Measured flits: 18811 18992 19025 19145 19205 (5 flits)
Class 0:
Remaining flits: 18811 18992 19025 19145 19205 (5 flits)
Measured flits: 18811 18992 19025 19145 19205 (5 flits)
Class 0:
Remaining flits: 18811 18992 19025 19145 19205 (5 flits)
Measured flits: 18811 18992 19025 19145 19205 (5 flits)
Class 0:
Remaining flits: 18811 18992 19025 19145 19205 (5 flits)
Measured flits: 18811 18992 19025 19145 19205 (5 flits)
Class 0:
Remaining flits: 18811 18992 19025 19145 19205 (5 flits)
Measured flits: 18811 18992 19025 19145 19205 (5 flits)
Class 0:
Remaining flits: 18811 18992 19025 19145 19205 (5 flits)
Measured flits: 18811 18992 19025 19145 19205 (5 flits)
Class 0:
Remaining flits: 18811 18992 19025 19145 19205 (5 flits)
Measured flits: 18811 18992 19025 19145 19205 (5 flits)
Class 0:
Remaining flits: 18811 18992 19025 19145 19205 (5 flits)
Measured flits: 18811 18992 19025 19145 19205 (5 flits)
Class 0:
Remaining flits: 18811 18992 19025 19145 19205 (5 flits)
Measured flits: 18811 18992 19025 19145 19205 (5 flits)
Class 0:
Remaining flits: 18811 18992 19025 19145 19205 (5 flits)
Measured flits: 18811 18992 19025 19145 19205 (5 flits)
Class 0:
Remaining flits: 18811 18992 19025 19145 19205 (5 flits)
Measured flits: 18811 18992 19025 19145 19205 (5 flits)
Class 0:
Remaining flits: 18811 18992 19025 19145 19205 (5 flits)
Measured flits: 18811 18992 19025 19145 19205 (5 flits)
Class 0:
Remaining flits: 18811 18992 19025 19145 19205 (5 flits)
Measured flits: 18811 18992 19025 19145 19205 (5 flits)
Class 0:
Remaining flits: 18811 18992 19025 19145 19205 (5 flits)
Measured flits: 18811 18992 19025 19145 19205 (5 flits)
Class 0:
Remaining flits: 18811 18992 19025 19145 19205 (5 flits)
Measured flits: 18811 18992 19025 19145 19205 (5 flits)
Class 0:
Remaining flits: 18811 18992 19025 19145 19205 (5 flits)
Measured flits: 18811 18992 19025 19145 19205 (5 flits)
Class 0:
Remaining flits: 18811 18992 19025 19145 19205 (5 flits)
Measured flits: 18811 18992 19025 19145 19205 (5 flits)
Class 0:
Remaining flits: 18811 18992 19025 19145 19205 (5 flits)
Measured flits: 18811 18992 19025 19145 19205 (5 flits)
Class 0:
Remaining flits: 18811 18992 19025 19145 19205 (5 flits)
Measured flits: 18811 18992 19025 19145 19205 (5 flits)
Class 0:
Remaining flits: 18811 18992 19025 19145 19205 (5 flits)
Measured flits: 18811 18992 19025 19145 19205 (5 flits)
Class 0:
Remaining flits: 18811 18992 19025 19145 19205 (5 flits)
Measured flits: 18811 18992 19025 19145 19205 (5 flits)
Class 0:
Remaining flits: 18811 18992 19025 19145 19205 (5 flits)
Measured flits: 18811 18992 19025 19145 19205 (5 flits)
Class 0:
Remaining flits: 18811 18992 19025 19145 19205 (5 flits)
Measured flits: 18811 18992 19025 19145 19205 (5 flits)
Class 0:
Remaining flits: 18811 18992 19025 19145 19205 (5 flits)
Measured flits: 18811 18992 19025 19145 19205 (5 flits)
Class 0:
Remaining flits: 18811 18992 19025 19145 19205 (5 flits)
Measured flits: 18811 18992 19025 19145 19205 (5 flits)
Class 0:
Remaining flits: 18811 18992 19025 19145 19205 (5 flits)
Measured flits: 18811 18992 19025 19145 19205 (5 flits)
Class 0:
Remaining flits: 18811 18992 19025 19145 19205 (5 flits)
Measured flits: 18811 18992 19025 19145 19205 (5 flits)
Class 0:
Remaining flits: 18811 18992 19025 19145 19205 (5 flits)
Measured flits: 18811 18992 19025 19145 19205 (5 flits)
Class 0:
Remaining flits: 18811 18992 19025 19145 19205 (5 flits)
Measured flits: 18811 18992 19025 19145 19205 (5 flits)
Time taken is 7000 cycles
====== Traffic class 0 ======

Total number of flits generated = 19238, changed lanes = 18888
Overall minimum packet latency = 7 (1 samples)
Overall average packet latency = 66.1802 (1 samples)
Overall maximum packet latency = 224 (1 samples)
Overall minimum network latency = 8 (1 samples)
Overall average network latency = 67.1802 (1 samples)
Overall maximum network latency = 225 (1 samples)
Overall minimum flit latency = 8 (1 samples)
Overall average flit latency = 67.5013 (1 samples)
Overall maximum flit latency = 225 (1 samples)
Overall minimum fragmentation = 0 (1 samples)
Overall average fragmentation = 0 (1 samples)
Overall maximum fragmentation = 0 (1 samples)
Overall minimum injected packet rate = 0.039 (1 samples)
Overall average injected packet rate = 0.0505 (1 samples)
Overall maximum injected packet rate = 0.057 (1 samples)
Overall minimum accepted packet rate = 0.0406667 (1 samples)
Overall average accepted packet rate = 0.0505365 (1 samples)
Overall maximum accepted packet rate = 0.0593333 (1 samples)
Overall minimum injected flit rate = 0.039 (1 samples)
Overall average injected flit rate = 0.0505 (1 samples)
Overall maximum injected flit rate = 0.057 (1 samples)
Overall minimum accepted flit rate = 0.0406667 (1 samples)
Overall average accepted flit rate = 0.0505365 (1 samples)
Overall maximum accepted flit rate = 0.0593333 (1 samples)
Overall average injected packet size = 1 (1 samples)
Overall average accepted packet size = 1 (1 samples)
Overall average hops = 6.29522 (1 samples)
Overall throughput of the network (flits/cycle) = 6.411
Overall throughput of the network (packets/cycle) = 6.411
Total run time 38.6289
