make: Nothing to be done for 'all'.
Master: Running timer....
Master: Running SRC....
BEGIN Configuration File: ./examples/bitrev
// Topology

topology = torus;
k = 4;
n = 2;

// Routing
routing_function = dim_order;

// Flow control
num_vcs     = 2;
vc_buf_size = 16;
wait_for_tail_credit = 0;

// Router architecture
vc_allocator = islip;
sw_allocator = islip;
alloc_iters  = 1;

credit_delay   = 1;
routing_delay  = 1;
vc_alloc_delay = 1;
sw_alloc_delay = 1;

input_speedup     = 1;
output_speedup    = 1;
internal_speedup  = 1.0;

vc_busy_when_full = 0;

// Traffic
traffic = uniform;
packet_size = 1;

// Simulation
sim_type = throughput;

injection_rate = 0.05;

END Configuration File: ./examples/bitrev
===== Time: 10000 =====
Class 0:
Minimum packet latency = 8
Average packet latency = 34.9901
Maximum packet latency = 112
Minimum network latency = 9
Average network latency = 35.9901
Maximum network latency = 113
Slowest packet = 4486
Minimum flit latency = 9
Average flit latency = 35.9901
Maximum flit latency = 113
Slowest flit = 4486
Minimum fragmentation = 0
Average fragmentation = 0
Maximum fragmentation = 0
Minimum injected packet rate = 0.0458 (at node 0)
Average injected packet rate = 0.0494687
Maximum injected packet rate = 0.0515 (at node 12)
Minimum accepted packet rate = 0.0426 (at node 4)
Average accepted packet rate = 0.0493125
Maximum accepted packet rate = 0.0543 (at node 8)
Minimum injected flit rate = 0.0458 (at node 0)
Average injected flit rate = 0.0494687
Maximum injected flit rate = 0.0515 (at node 12)
Minimum accepted flit rate = 0.0426 (at node 4)
Average accepted flit rate = 0.0493125
Maximum accepted flit rate = 0.0543 (at node 8)
Total number of injected packets = 7915
Total number of injected flits = 7915
Average injected packet length = 1
Total number of accepted packets = 7890
Total number of accepted flits = 7890
Average accepted packet length = 1
Total in-flight flits = 25 (0 measured)
===== Time: 20000 =====
Class 0:
Minimum packet latency = 7
Average packet latency = 35.2159
Maximum packet latency = 202
Minimum network latency = 8
Average network latency = 36.2159
Maximum network latency = 203
Slowest packet = 10128
Minimum flit latency = 8
Average flit latency = 36.2159
Maximum flit latency = 203
Slowest flit = 10128
Minimum fragmentation = 0
Average fragmentation = 0
Maximum fragmentation = 0
Minimum injected packet rate = 0.0483 (at node 8)
Average injected packet rate = 0.0500375
Maximum injected packet rate = 0.0526 (at node 12)
Minimum accepted packet rate = 0.04475 (at node 4)
Average accepted packet rate = 0.0499375
Maximum accepted packet rate = 0.0535 (at node 8)
Minimum injected flit rate = 0.0483 (at node 8)
Average injected flit rate = 0.0500375
Maximum injected flit rate = 0.0526 (at node 12)
Minimum accepted flit rate = 0.04475 (at node 4)
Average accepted flit rate = 0.0499375
Maximum accepted flit rate = 0.0535 (at node 8)
Total number of injected packets = 16012
Total number of injected flits = 16012
Average injected packet length = 1
Total number of accepted packets = 15980
Total number of accepted flits = 15980
Average accepted packet length = 1
Total in-flight flits = 32 (0 measured)
===== Time: 30000 =====
Class 0:
Minimum packet latency = 8
Average packet latency = 35.5859
Maximum packet latency = 216
Minimum network latency = 9
Average network latency = 36.5859
Maximum network latency = 217
Slowest packet = 19863
Minimum flit latency = 9
Average flit latency = 36.5859
Maximum flit latency = 217
Slowest flit = 19863
Minimum fragmentation = 0
Average fragmentation = 0
Maximum fragmentation = 0
Minimum injected packet rate = 0.045 (at node 15)
Average injected packet rate = 0.0495875
Maximum injected packet rate = 0.0541 (at node 13)
Minimum accepted packet rate = 0.0467 (at node 4)
Average accepted packet rate = 0.0496375
Maximum accepted packet rate = 0.0535 (at node 7)
Minimum injected flit rate = 0.045 (at node 15)
Average injected flit rate = 0.0495875
Maximum injected flit rate = 0.0541 (at node 13)
Minimum accepted flit rate = 0.0467 (at node 4)
Average accepted flit rate = 0.0496375
Maximum accepted flit rate = 0.0535 (at node 7)
Total number of injected packets = 7934
Total number of injected flits = 7934
Average injected packet length = 1
Total number of accepted packets = 7942
Total number of accepted flits = 7942
Average accepted packet length = 1
Total in-flight flits = 24 (0 measured)
===== Time: 40000 =====
Class 0:
Minimum packet latency = 8
Average packet latency = 36.3445
Maximum packet latency = 443
Minimum network latency = 9
Average network latency = 37.3445
Maximum network latency = 444
Slowest packet = 27189
Minimum flit latency = 9
Average flit latency = 37.3545
Maximum flit latency = 444
Slowest flit = 27189
Minimum fragmentation = 0
Average fragmentation = 0
Maximum fragmentation = 0
Minimum injected packet rate = 0.0473 (at node 6)
Average injected packet rate = 0.0501938
Maximum injected packet rate = 0.0543 (at node 14)
Minimum accepted packet rate = 0.0455 (at node 3)
Average accepted packet rate = 0.0501562
Maximum accepted packet rate = 0.054 (at node 10)
Minimum injected flit rate = 0.0473 (at node 6)
Average injected flit rate = 0.0501938
Maximum injected flit rate = 0.0543 (at node 14)
Minimum accepted flit rate = 0.0455 (at node 3)
Average accepted flit rate = 0.0501562
Maximum accepted flit rate = 0.054 (at node 10)
Total number of injected packets = 8031
Total number of injected flits = 8031
Average injected packet length = 1
Total number of accepted packets = 8025
Total number of accepted flits = 8025
Average accepted packet length = 1
Total in-flight flits = 30 (30 measured)
===== Time: 50000 =====
Class 0:
Minimum packet latency = 8
Average packet latency = 35.8812
Maximum packet latency = 443
Minimum network latency = 9
Average network latency = 36.8812
Maximum network latency = 444
Slowest packet = 27189
Minimum flit latency = 9
Average flit latency = 36.8869
Maximum flit latency = 444
Slowest flit = 27189
Minimum fragmentation = 0
Average fragmentation = 0
Maximum fragmentation = 0
Minimum injected packet rate = 0.04815 (at node 10)
Average injected packet rate = 0.0503
Maximum injected packet rate = 0.05345 (at node 14)
Minimum accepted packet rate = 0.0481 (at node 3)
Average accepted packet rate = 0.0502969
Maximum accepted packet rate = 0.0528 (at node 7)
Minimum injected flit rate = 0.04815 (at node 10)
Average injected flit rate = 0.0503
Maximum injected flit rate = 0.05345 (at node 14)
Minimum accepted flit rate = 0.0481 (at node 3)
Average accepted flit rate = 0.0502969
Maximum accepted flit rate = 0.0528 (at node 7)
Total number of injected packets = 16096
Total number of injected flits = 16096
Average injected packet length = 1
Total number of accepted packets = 16095
Total number of accepted flits = 16095
Average accepted packet length = 1
Total in-flight flits = 25 (25 measured)
===== Time: 60000 =====
Class 0:
Minimum packet latency = 8
Average packet latency = 35.8924
Maximum packet latency = 598
Minimum network latency = 9
Average network latency = 36.8924
Maximum network latency = 599
Slowest packet = 47160
Minimum flit latency = 9
Average flit latency = 36.8962
Maximum flit latency = 599
Slowest flit = 47160
Minimum fragmentation = 0
Average fragmentation = 0
Maximum fragmentation = 0
Minimum injected packet rate = 0.0482 (at node 10)
Average injected packet rate = 0.0501896
Maximum injected packet rate = 0.0528667 (at node 14)
Minimum accepted packet rate = 0.0483 (at node 0)
Average accepted packet rate = 0.0501625
Maximum accepted packet rate = 0.0529333 (at node 7)
Minimum injected flit rate = 0.0482 (at node 10)
Average injected flit rate = 0.0501896
Maximum injected flit rate = 0.0528667 (at node 14)
Minimum accepted flit rate = 0.0483 (at node 0)
Average accepted flit rate = 0.0501625
Maximum accepted flit rate = 0.0529333 (at node 7)
Total number of injected packets = 24091
Total number of injected flits = 24091
Average injected packet length = 1
Total number of accepted packets = 24078
Total number of accepted flits = 24078
Average accepted packet length = 1
Total in-flight flits = 37 (37 measured)
Draining remaining packets ...
Class 0:
Remaining flits: 47990 48005 48007 48010 48011 48012 48013 48014 48015 48017 [...] (26 flits)
Measured flits: 47990 48005 48007 48010 48011 48012 48013 48014 48015 48017 [...] (26 flits)
Class 0:
Remaining flits: 48007 48010 48011 48013 48015 48021 48022 48023 48025 48026 [...] (18 flits)
Measured flits: 48007 48010 48011 48013 48015 48021 48022 48023 48025 48026 [...] (18 flits)
Class 0:
Remaining flits: 48010 48013 48015 48022 48025 48026 48027 48030 48033 48035 [...] (11 flits)
Measured flits: 48010 48013 48015 48022 48025 48026 48027 48030 48033 48035 [...] (11 flits)
Class 0:
Remaining flits: 48010 48022 48030 48033 (4 flits)
Measured flits: 48010 48022 48030 48033 (4 flits)
Class 0:
Remaining flits: 48010 (1 flits)
Measured flits: 48010 (1 flits)
Class 0:
Remaining flits: 48010 (1 flits)
Measured flits: 48010 (1 flits)
Class 0:
Remaining flits: 48010 (1 flits)
Measured flits: 48010 (1 flits)
Class 0:
Remaining flits: 48010 (1 flits)
Measured flits: 48010 (1 flits)
Class 0:
Remaining flits: 48010 (1 flits)
Measured flits: 48010 (1 flits)
Class 0:
Remaining flits: 48010 (1 flits)
Measured flits: 48010 (1 flits)
Class 0:
Remaining flits: 48010 (1 flits)
Measured flits: 48010 (1 flits)
Class 0:
Remaining flits: 48010 (1 flits)
Measured flits: 48010 (1 flits)
Class 0:
Remaining flits: 48010 (1 flits)
Measured flits: 48010 (1 flits)
Class 0:
Remaining flits: 48010 (1 flits)
Measured flits: 48010 (1 flits)
Class 0:
Remaining flits: 48010 (1 flits)
Measured flits: 48010 (1 flits)
Class 0:
Remaining flits: 48010 (1 flits)
Measured flits: 48010 (1 flits)
Class 0:
Remaining flits: 48010 (1 flits)
Measured flits: 48010 (1 flits)
Class 0:
Remaining flits: 48010 (1 flits)
Measured flits: 48010 (1 flits)
Class 0:
Remaining flits: 48010 (1 flits)
Measured flits: 48010 (1 flits)
Class 0:
Remaining flits: 48010 (1 flits)
Measured flits: 48010 (1 flits)
Class 0:
Remaining flits: 48010 (1 flits)
Measured flits: 48010 (1 flits)
Class 0:
Remaining flits: 48010 (1 flits)
Measured flits: 48010 (1 flits)
Class 0:
Remaining flits: 48010 (1 flits)
Measured flits: 48010 (1 flits)
Class 0:
Remaining flits: 48010 (1 flits)
Measured flits: 48010 (1 flits)
Class 0:
Remaining flits: 48010 (1 flits)
Measured flits: 48010 (1 flits)
Class 0:
Remaining flits: 48010 (1 flits)
Measured flits: 48010 (1 flits)
Class 0:
Remaining flits: 48010 (1 flits)
Measured flits: 48010 (1 flits)
Class 0:
Remaining flits: 48010 (1 flits)
Measured flits: 48010 (1 flits)
Class 0:
Remaining flits: 48010 (1 flits)
Measured flits: 48010 (1 flits)
Class 0:
Remaining flits: 48010 (1 flits)
Measured flits: 48010 (1 flits)
Class 0:
Remaining flits: 48010 (1 flits)
Measured flits: 48010 (1 flits)
Class 0:
Remaining flits: 48010 (1 flits)
Measured flits: 48010 (1 flits)
Class 0:
Remaining flits: 48010 (1 flits)
Measured flits: 48010 (1 flits)
Class 0:
Remaining flits: 48010 (1 flits)
Measured flits: 48010 (1 flits)
Class 0:
Remaining flits: 48010 (1 flits)
Measured flits: 48010 (1 flits)
Class 0:
Remaining flits: 48010 (1 flits)
Measured flits: 48010 (1 flits)
Class 0:
Remaining flits: 48010 (1 flits)
Measured flits: 48010 (1 flits)
Class 0:
Remaining flits: 48010 (1 flits)
Measured flits: 48010 (1 flits)
Class 0:
Remaining flits: 48010 (1 flits)
Measured flits: 48010 (1 flits)
Class 0:
Remaining flits: 48010 (1 flits)
Measured flits: 48010 (1 flits)
Class 0:
Remaining flits: 48010 (1 flits)
Measured flits: 48010 (1 flits)
Class 0:
Remaining flits: 48010 (1 flits)
Measured flits: 48010 (1 flits)
Class 0:
Remaining flits: 48010 (1 flits)
Measured flits: 48010 (1 flits)
Class 0:
Remaining flits: 48010 (1 flits)
Measured flits: 48010 (1 flits)
Class 0:
Remaining flits: 48010 (1 flits)
Measured flits: 48010 (1 flits)
Class 0:
Remaining flits: 48010 (1 flits)
Measured flits: 48010 (1 flits)
Class 0:
Remaining flits: 48010 (1 flits)
Measured flits: 48010 (1 flits)
Class 0:
Remaining flits: 48010 (1 flits)
Measured flits: 48010 (1 flits)
Class 0:
Remaining flits: 48010 (1 flits)
Measured flits: 48010 (1 flits)
Class 0:
Remaining flits: 48010 (1 flits)
Measured flits: 48010 (1 flits)
Class 0:
Remaining flits: 48010 (1 flits)
Measured flits: 48010 (1 flits)
Class 0:
Remaining flits: 48010 (1 flits)
Measured flits: 48010 (1 flits)
Class 0:
Remaining flits: 48010 (1 flits)
Measured flits: 48010 (1 flits)
Class 0:
Remaining flits: 48010 (1 flits)
Measured flits: 48010 (1 flits)
Class 0:
Remaining flits: 48010 (1 flits)
Measured flits: 48010 (1 flits)
Class 0:
Remaining flits: 48010 (1 flits)
Measured flits: 48010 (1 flits)
Class 0:
Remaining flits: 48010 (1 flits)
Measured flits: 48010 (1 flits)
Class 0:
Remaining flits: 48010 (1 flits)
Measured flits: 48010 (1 flits)
Class 0:
Remaining flits: 48010 (1 flits)
Measured flits: 48010 (1 flits)
Class 0:
Remaining flits: 48010 (1 flits)
Measured flits: 48010 (1 flits)
Class 0:
Remaining flits: 48010 (1 flits)
Measured flits: 48010 (1 flits)
Class 0:
Remaining flits: 48010 (1 flits)
Measured flits: 48010 (1 flits)
Class 0:
Remaining flits: 48010 (1 flits)
Measured flits: 48010 (1 flits)
Class 0:
Remaining flits: 48010 (1 flits)
Measured flits: 48010 (1 flits)
Class 0:
Remaining flits: 48010 (1 flits)
Measured flits: 48010 (1 flits)
Class 0:
Remaining flits: 48010 (1 flits)
Measured flits: 48010 (1 flits)
Class 0:
Remaining flits: 48010 (1 flits)
Measured flits: 48010 (1 flits)
Class 0:
Remaining flits: 48010 (1 flits)
Measured flits: 48010 (1 flits)
Class 0:
Remaining flits: 48010 (1 flits)
Measured flits: 48010 (1 flits)
Class 0:
Remaining flits: 48010 (1 flits)
Measured flits: 48010 (1 flits)
Class 0:
Remaining flits: 48010 (1 flits)
Measured flits: 48010 (1 flits)
Class 0:
Remaining flits: 48010 (1 flits)
Measured flits: 48010 (1 flits)
Class 0:
Remaining flits: 48010 (1 flits)
Measured flits: 48010 (1 flits)
Class 0:
Remaining flits: 48010 (1 flits)
Measured flits: 48010 (1 flits)
Class 0:
Remaining flits: 48010 (1 flits)
Measured flits: 48010 (1 flits)
Class 0:
Remaining flits: 48010 (1 flits)
Measured flits: 48010 (1 flits)
Class 0:
Remaining flits: 48010 (1 flits)
Measured flits: 48010 (1 flits)
Class 0:
Remaining flits: 48010 (1 flits)
Measured flits: 48010 (1 flits)
Class 0:
Remaining flits: 48010 (1 flits)
Measured flits: 48010 (1 flits)
Class 0:
Remaining flits: 48010 (1 flits)
Measured flits: 48010 (1 flits)
Class 0:
Remaining flits: 48010 (1 flits)
Measured flits: 48010 (1 flits)
Class 0:
Remaining flits: 48010 (1 flits)
Measured flits: 48010 (1 flits)
Class 0:
Remaining flits: 48010 (1 flits)
Measured flits: 48010 (1 flits)
Class 0:
Remaining flits: 48010 (1 flits)
Measured flits: 48010 (1 flits)
Class 0:
Remaining flits: 48010 (1 flits)
Measured flits: 48010 (1 flits)
Class 0:
Remaining flits: 48010 (1 flits)
Measured flits: 48010 (1 flits)
Class 0:
Remaining flits: 48010 (1 flits)
Measured flits: 48010 (1 flits)
Class 0:
Remaining flits: 48010 (1 flits)
Measured flits: 48010 (1 flits)
Class 0:
Remaining flits: 48010 (1 flits)
Measured flits: 48010 (1 flits)
Class 0:
Remaining flits: 48010 (1 flits)
Measured flits: 48010 (1 flits)
Class 0:
Remaining flits: 48010 (1 flits)
Measured flits: 48010 (1 flits)
Class 0:
Remaining flits: 48010 (1 flits)
Measured flits: 48010 (1 flits)
Class 0:
Remaining flits: 48010 (1 flits)
Measured flits: 48010 (1 flits)
Class 0:
Remaining flits: 48010 (1 flits)
Measured flits: 48010 (1 flits)
Class 0:
Remaining flits: 48010 (1 flits)
Measured flits: 48010 (1 flits)
Class 0:
Remaining flits: 48010 (1 flits)
Measured flits: 48010 (1 flits)
Class 0:
Remaining flits: 48010 (1 flits)
Measured flits: 48010 (1 flits)
Class 0:
Remaining flits: 48010 (1 flits)
Measured flits: 48010 (1 flits)
Class 0:
Remaining flits: 48010 (1 flits)
Measured flits: 48010 (1 flits)
Class 0:
Remaining flits: 48010 (1 flits)
Measured flits: 48010 (1 flits)
Class 0:
Remaining flits: 48010 (1 flits)
Measured flits: 48010 (1 flits)
Time taken is 61000 cycles
====== Traffic class 0 ======

Total number of flits generated = 48037, changed lanes = 38710
Overall minimum packet latency = 8 (1 samples)
Overall average packet latency = 35.9011 (1 samples)
Overall maximum packet latency = 598 (1 samples)
Overall minimum network latency = 9 (1 samples)
Overall average network latency = 36.9011 (1 samples)
Overall maximum network latency = 599 (1 samples)
Overall minimum flit latency = 9 (1 samples)
Overall average flit latency = 36.9049 (1 samples)
Overall maximum flit latency = 599 (1 samples)
Overall minimum fragmentation = 0 (1 samples)
Overall average fragmentation = 0 (1 samples)
Overall maximum fragmentation = 0 (1 samples)
Overall minimum injected packet rate = 0.0482 (1 samples)
Overall average injected packet rate = 0.0501896 (1 samples)
Overall maximum injected packet rate = 0.0528667 (1 samples)
Overall minimum accepted packet rate = 0.0483 (1 samples)
Overall average accepted packet rate = 0.0501625 (1 samples)
Overall maximum accepted packet rate = 0.0529333 (1 samples)
Overall minimum injected flit rate = 0.0482 (1 samples)
Overall average injected flit rate = 0.0501896 (1 samples)
Overall maximum injected flit rate = 0.0528667 (1 samples)
Overall minimum accepted flit rate = 0.0483 (1 samples)
Overall average accepted flit rate = 0.0501625 (1 samples)
Overall maximum accepted flit rate = 0.0529333 (1 samples)
Overall average injected packet size = 1 (1 samples)
Overall average accepted packet size = 1 (1 samples)
Overall average hops = 3.00029 (1 samples)
Overall throughput of the network (flits/cycle) = 1.6012
Overall throughput of the network (packets/cycle) = 1.6012
Total run time 53.3832
