Master: Running timer....
Master: Running SRC....
BEGIN Configuration File: ./examples/bitrev
// Topology

topology = torus;
k = 4;
n = 2;

// Routing
routing_function = dim_order;

// Flow control
num_vcs     = 32;
vc_buf_size = 1;
wait_for_tail_credit = 0;

// Router architecture
vc_allocator = islip;
sw_allocator = islip;
alloc_iters  = 1;

credit_delay   = 1;
routing_delay  = 1;
vc_alloc_delay = 1;
sw_alloc_delay = 1;

input_speedup     = 1;
output_speedup    = 1;
internal_speedup  = 1.0;

vc_busy_when_full = 0;

// Traffic
traffic = uniform;
packet_size = 1;

// Simulation
sim_type = throughput;

injection_rate = 0.05;

END Configuration File: ./examples/bitrev
===== Time: 1000 =====
Class 0:
Minimum packet latency = 8
Average packet latency = 38.4789
Maximum packet latency = 239
Minimum network latency = 9
Average network latency = 39.4789
Maximum network latency = 240
Slowest packet = 146
Minimum flit latency = 9
Average flit latency = 39.4789
Maximum flit latency = 240
Slowest flit = 146
Minimum fragmentation = 0
Average fragmentation = 0
Maximum fragmentation = 0
Minimum injected packet rate = 0.041 (at node 5)
Average injected packet rate = 0.048875
Maximum injected packet rate = 0.054 (at node 1)
Minimum accepted packet rate = 0.04 (at node 7)
Average accepted packet rate = 0.0475
Maximum accepted packet rate = 0.061 (at node 15)
Minimum injected flit rate = 0.041 (at node 5)
Average injected flit rate = 0.048875
Maximum injected flit rate = 0.054 (at node 1)
Minimum accepted flit rate = 0.04 (at node 7)
Average accepted flit rate = 0.0475
Maximum accepted flit rate = 0.061 (at node 15)
Total number of injected packets = 782
Total number of injected flits = 782
Average injected packet length = 1
Total number of accepted packets = 760
Total number of accepted flits = 760
Average accepted packet length = 1
Total in-flight flits = 22 (0 measured)
===== Time: 2000 =====
Class 0:
Minimum packet latency = 8
Average packet latency = 38.4161
Maximum packet latency = 239
Minimum network latency = 9
Average network latency = 39.4161
Maximum network latency = 240
Slowest packet = 146
Minimum flit latency = 9
Average flit latency = 39.4161
Maximum flit latency = 240
Slowest flit = 146
Minimum fragmentation = 0
Average fragmentation = 0
Maximum fragmentation = 0
Minimum injected packet rate = 0.0395 (at node 8)
Average injected packet rate = 0.049125
Maximum injected packet rate = 0.057 (at node 12)
Minimum accepted packet rate = 0.04 (at node 14)
Average accepted packet rate = 0.0482187
Maximum accepted packet rate = 0.058 (at node 15)
Minimum injected flit rate = 0.0395 (at node 8)
Average injected flit rate = 0.049125
Maximum injected flit rate = 0.057 (at node 12)
Minimum accepted flit rate = 0.04 (at node 14)
Average accepted flit rate = 0.0482187
Maximum accepted flit rate = 0.058 (at node 15)
Total number of injected packets = 1572
Total number of injected flits = 1572
Average injected packet length = 1
Total number of accepted packets = 1543
Total number of accepted flits = 1543
Average accepted packet length = 1
Total in-flight flits = 29 (0 measured)
===== Time: 3000 =====
Class 0:
Minimum packet latency = 8
Average packet latency = 40.2991
Maximum packet latency = 261
Minimum network latency = 9
Average network latency = 41.2991
Maximum network latency = 262
Slowest packet = 2069
Minimum flit latency = 9
Average flit latency = 41.2991
Maximum flit latency = 262
Slowest flit = 2069
Minimum fragmentation = 0
Average fragmentation = 0
Maximum fragmentation = 0
Minimum injected packet rate = 0.045 (at node 4)
Average injected packet rate = 0.0518125
Maximum injected packet rate = 0.059 (at node 1)
Minimum accepted packet rate = 0.039 (at node 2)
Average accepted packet rate = 0.0511875
Maximum accepted packet rate = 0.061 (at node 15)
Minimum injected flit rate = 0.045 (at node 4)
Average injected flit rate = 0.0518125
Maximum injected flit rate = 0.059 (at node 1)
Minimum accepted flit rate = 0.039 (at node 2)
Average accepted flit rate = 0.0511875
Maximum accepted flit rate = 0.061 (at node 15)
Total number of injected packets = 829
Total number of injected flits = 829
Average injected packet length = 1
Total number of accepted packets = 819
Total number of accepted flits = 819
Average accepted packet length = 1
Total in-flight flits = 39 (0 measured)
===== Time: 4000 =====
Class 0:
Minimum packet latency = 8
Average packet latency = 37.3902
Maximum packet latency = 104
Minimum network latency = 9
Average network latency = 38.3902
Maximum network latency = 105
Slowest packet = 2619
Minimum flit latency = 9
Average flit latency = 38.7246
Maximum flit latency = 105
Slowest flit = 2619
Minimum fragmentation = 0
Average fragmentation = 0
Maximum fragmentation = 0
Minimum injected packet rate = 0.035 (at node 0)
Average injected packet rate = 0.0480625
Maximum injected packet rate = 0.057 (at node 9)
Minimum accepted packet rate = 0.033 (at node 4)
Average accepted packet rate = 0.0485625
Maximum accepted packet rate = 0.058 (at node 8)
Minimum injected flit rate = 0.035 (at node 0)
Average injected flit rate = 0.0480625
Maximum injected flit rate = 0.057 (at node 9)
Minimum accepted flit rate = 0.033 (at node 4)
Average accepted flit rate = 0.0485625
Maximum accepted flit rate = 0.058 (at node 8)
Total number of injected packets = 769
Total number of injected flits = 769
Average injected packet length = 1
Total number of accepted packets = 777
Total number of accepted flits = 777
Average accepted packet length = 1
Total in-flight flits = 31 (31 measured)
===== Time: 5000 =====
Class 0:
Minimum packet latency = 8
Average packet latency = 38.5556
Maximum packet latency = 156
Minimum network latency = 9
Average network latency = 39.5556
Maximum network latency = 157
Slowest packet = 3203
Minimum flit latency = 9
Average flit latency = 39.6948
Maximum flit latency = 157
Slowest flit = 3203
Minimum fragmentation = 0
Average fragmentation = 0
Maximum fragmentation = 0
Minimum injected packet rate = 0.0365 (at node 0)
Average injected packet rate = 0.0476875
Maximum injected packet rate = 0.0575 (at node 9)
Minimum accepted packet rate = 0.038 (at node 4)
Average accepted packet rate = 0.048125
Maximum accepted packet rate = 0.055 (at node 7)
Minimum injected flit rate = 0.0365 (at node 0)
Average injected flit rate = 0.0476875
Maximum injected flit rate = 0.0575 (at node 9)
Minimum accepted flit rate = 0.038 (at node 4)
Average accepted flit rate = 0.048125
Maximum accepted flit rate = 0.055 (at node 7)
Total number of injected packets = 1526
Total number of injected flits = 1526
Average injected packet length = 1
Total number of accepted packets = 1540
Total number of accepted flits = 1540
Average accepted packet length = 1
Total in-flight flits = 25 (25 measured)
===== Time: 6000 =====
Class 0:
Minimum packet latency = 8
Average packet latency = 38.4179
Maximum packet latency = 156
Minimum network latency = 9
Average network latency = 39.4179
Maximum network latency = 157
Slowest packet = 3203
Minimum flit latency = 9
Average flit latency = 39.5125
Maximum flit latency = 157
Slowest flit = 3203
Minimum fragmentation = 0
Average fragmentation = 0
Maximum fragmentation = 0
Minimum injected packet rate = 0.041 (at node 0)
Average injected packet rate = 0.0481667
Maximum injected packet rate = 0.057 (at node 15)
Minimum accepted packet rate = 0.0386667 (at node 4)
Average accepted packet rate = 0.0484167
Maximum accepted packet rate = 0.0533333 (at node 7)
Minimum injected flit rate = 0.041 (at node 0)
Average injected flit rate = 0.0481667
Maximum injected flit rate = 0.057 (at node 15)
Minimum accepted flit rate = 0.0386667 (at node 4)
Average accepted flit rate = 0.0484167
Maximum accepted flit rate = 0.0533333 (at node 7)
Total number of injected packets = 2312
Total number of injected flits = 2312
Average injected packet length = 1
Total number of accepted packets = 2324
Total number of accepted flits = 2324
Average accepted packet length = 1
Total in-flight flits = 27 (27 measured)
===== Time: 7000 =====
Class 0:
Minimum packet latency = 8
Average packet latency = 37.9335
Maximum packet latency = 156
Minimum network latency = 9
Average network latency = 38.9335
Maximum network latency = 157
Slowest packet = 3203
Minimum flit latency = 9
Average flit latency = 39.0096
Maximum flit latency = 157
Slowest flit = 3203
Minimum fragmentation = 0
Average fragmentation = 0
Maximum fragmentation = 0
Minimum injected packet rate = 0.04275 (at node 0)
Average injected packet rate = 0.0488906
Maximum injected packet rate = 0.054 (at node 15)
Minimum accepted packet rate = 0.0415 (at node 4)
Average accepted packet rate = 0.0490469
Maximum accepted packet rate = 0.05525 (at node 0)
Minimum injected flit rate = 0.04275 (at node 0)
Average injected flit rate = 0.0488906
Maximum injected flit rate = 0.054 (at node 15)
Minimum accepted flit rate = 0.0415 (at node 4)
Average accepted flit rate = 0.0490469
Maximum accepted flit rate = 0.05525 (at node 0)
Total number of injected packets = 3129
Total number of injected flits = 3129
Average injected packet length = 1
Total number of accepted packets = 3139
Total number of accepted flits = 3139
Average accepted packet length = 1
Total in-flight flits = 29 (29 measured)
Draining remaining packets ...
Class 0:
Remaining flits: 5485 5498 5500 5502 5505 5514 5515 5516 5517 5518 [...] (18 flits)
Measured flits: 5485 5498 5500 5502 5505 5514 5515 5516 5517 5518 [...] (18 flits)
Class 0:
Remaining flits: 5502 5514 5516 5517 5518 5519 5524 5525 5526 5527 [...] (12 flits)
Measured flits: 5502 5514 5516 5517 5518 5519 5524 5525 5526 5527 [...] (12 flits)
Class 0:
Remaining flits: 5517 5518 5524 5525 5526 5527 5529 (7 flits)
Measured flits: 5517 5518 5524 5525 5526 5527 5529 (7 flits)
Class 0:
Remaining flits: 5517 5518 5525 5526 5527 5529 (6 flits)
Measured flits: 5517 5518 5525 5526 5527 5529 (6 flits)
Class 0:
Remaining flits: 5517 5525 (2 flits)
Measured flits: 5517 5525 (2 flits)
Class 0:
Remaining flits: (0 flits)
Measured flits: (0 flits)
Class 0:
Remaining flits: (0 flits)
Measured flits: (0 flits)
Class 0:
Remaining flits: (0 flits)
Measured flits: (0 flits)
Class 0:
Remaining flits: (0 flits)
Measured flits: (0 flits)
Class 0:
Remaining flits: (0 flits)
Measured flits: (0 flits)
Class 0:
Remaining flits: (0 flits)
Measured flits: (0 flits)
Class 0:
Remaining flits: (0 flits)
Measured flits: (0 flits)
Class 0:
Remaining flits: (0 flits)
Measured flits: (0 flits)
Class 0:
Remaining flits: (0 flits)
Measured flits: (0 flits)
Class 0:
Remaining flits: (0 flits)
Measured flits: (0 flits)
Class 0:
Remaining flits: (0 flits)
Measured flits: (0 flits)
Class 0:
Remaining flits: (0 flits)
Measured flits: (0 flits)
Class 0:
Remaining flits: (0 flits)
Measured flits: (0 flits)
Class 0:
Remaining flits: (0 flits)
Measured flits: (0 flits)
Class 0:
Remaining flits: (0 flits)
Measured flits: (0 flits)
Class 0:
Remaining flits: (0 flits)
Measured flits: (0 flits)
Class 0:
Remaining flits: (0 flits)
Measured flits: (0 flits)
Class 0:
Remaining flits: (0 flits)
Measured flits: (0 flits)
Class 0:
Remaining flits: (0 flits)
Measured flits: (0 flits)
Class 0:
Remaining flits: (0 flits)
Measured flits: (0 flits)
Class 0:
Remaining flits: (0 flits)
Measured flits: (0 flits)
Class 0:
Remaining flits: (0 flits)
Measured flits: (0 flits)
Class 0:
Remaining flits: (0 flits)
Measured flits: (0 flits)
Class 0:
Remaining flits: (0 flits)
Measured flits: (0 flits)
Class 0:
Remaining flits: (0 flits)
Measured flits: (0 flits)
Class 0:
Remaining flits: (0 flits)
Measured flits: (0 flits)
Class 0:
Remaining flits: (0 flits)
Measured flits: (0 flits)
Class 0:
Remaining flits: (0 flits)
Measured flits: (0 flits)
Class 0:
Remaining flits: (0 flits)
Measured flits: (0 flits)
Class 0:
Remaining flits: (0 flits)
Measured flits: (0 flits)
Class 0:
Remaining flits: (0 flits)
Measured flits: (0 flits)
Class 0:
Remaining flits: (0 flits)
Measured flits: (0 flits)
Class 0:
Remaining flits: (0 flits)
Measured flits: (0 flits)
Class 0:
Remaining flits: (0 flits)
Measured flits: (0 flits)
Class 0:
Remaining flits: (0 flits)
Measured flits: (0 flits)
Class 0:
Remaining flits: (0 flits)
Measured flits: (0 flits)
Class 0:
Remaining flits: (0 flits)
Measured flits: (0 flits)
Class 0:
Remaining flits: (0 flits)
Measured flits: (0 flits)
Class 0:
Remaining flits: (0 flits)
Measured flits: (0 flits)
Class 0:
Remaining flits: (0 flits)
Measured flits: (0 flits)
Class 0:
Remaining flits: (0 flits)
Measured flits: (0 flits)
Class 0:
Remaining flits: (0 flits)
Measured flits: (0 flits)
Class 0:
Remaining flits: (0 flits)
Measured flits: (0 flits)
Class 0:
Remaining flits: (0 flits)
Measured flits: (0 flits)
Class 0:
Remaining flits: (0 flits)
Measured flits: (0 flits)
Class 0:
Remaining flits: (0 flits)
Measured flits: (0 flits)
Class 0:
Remaining flits: (0 flits)
Measured flits: (0 flits)
Class 0:
Remaining flits: (0 flits)
Measured flits: (0 flits)
Class 0:
Remaining flits: (0 flits)
Measured flits: (0 flits)
Class 0:
Remaining flits: (0 flits)
Measured flits: (0 flits)
Class 0:
Remaining flits: (0 flits)
Measured flits: (0 flits)
Class 0:
Remaining flits: (0 flits)
Measured flits: (0 flits)
Class 0:
Remaining flits: (0 flits)
Measured flits: (0 flits)
Class 0:
Remaining flits: (0 flits)
Measured flits: (0 flits)
Class 0:
Remaining flits: (0 flits)
Measured flits: (0 flits)
Class 0:
Remaining flits: (0 flits)
Measured flits: (0 flits)
Class 0:
Remaining flits: (0 flits)
Measured flits: (0 flits)
Class 0:
Remaining flits: (0 flits)
Measured flits: (0 flits)
Class 0:
Remaining flits: (0 flits)
Measured flits: (0 flits)
Class 0:
Remaining flits: (0 flits)
Measured flits: (0 flits)
Class 0:
Remaining flits: (0 flits)
Measured flits: (0 flits)
Class 0:
Remaining flits: (0 flits)
Measured flits: (0 flits)
Class 0:
Remaining flits: (0 flits)
Measured flits: (0 flits)
Class 0:
Remaining flits: (0 flits)
Measured flits: (0 flits)
Class 0:
Remaining flits: (0 flits)
Measured flits: (0 flits)
Class 0:
Remaining flits: (0 flits)
Measured flits: (0 flits)
Class 0:
Remaining flits: (0 flits)
Measured flits: (0 flits)
Class 0:
Remaining flits: (0 flits)
Measured flits: (0 flits)
Class 0:
Remaining flits: (0 flits)
Measured flits: (0 flits)
Class 0:
Remaining flits: (0 flits)
Measured flits: (0 flits)
Class 0:
Remaining flits: (0 flits)
Measured flits: (0 flits)
Class 0:
Remaining flits: (0 flits)
Measured flits: (0 flits)
Class 0:
Remaining flits: (0 flits)
Measured flits: (0 flits)
Class 0:
Remaining flits: (0 flits)
Measured flits: (0 flits)
Class 0:
Remaining flits: (0 flits)
Measured flits: (0 flits)
Class 0:
Remaining flits: (0 flits)
Measured flits: (0 flits)
Class 0:
Remaining flits: (0 flits)
Measured flits: (0 flits)
Class 0:
Remaining flits: (0 flits)
Measured flits: (0 flits)
Class 0:
Remaining flits: (0 flits)
Measured flits: (0 flits)
Class 0:
Remaining flits: (0 flits)
Measured flits: (0 flits)
Class 0:
Remaining flits: (0 flits)
Measured flits: (0 flits)
Class 0:
Remaining flits: (0 flits)
Measured flits: (0 flits)
Class 0:
Remaining flits: (0 flits)
Measured flits: (0 flits)
Class 0:
Remaining flits: (0 flits)
Measured flits: (0 flits)
Class 0:
Remaining flits: (0 flits)
Measured flits: (0 flits)
Class 0:
Remaining flits: (0 flits)
Measured flits: (0 flits)
Class 0:
Remaining flits: (0 flits)
Measured flits: (0 flits)
Class 0:
Remaining flits: (0 flits)
Measured flits: (0 flits)
Class 0:
Remaining flits: (0 flits)
Measured flits: (0 flits)
Class 0:
Remaining flits: (0 flits)
Measured flits: (0 flits)
Class 0:
Remaining flits: (0 flits)
Measured flits: (0 flits)
Class 0:
Remaining flits: (0 flits)
Measured flits: (0 flits)
Class 0:
Remaining flits: (0 flits)
Measured flits: (0 flits)
Class 0:
Remaining flits: (0 flits)
Measured flits: (0 flits)
Class 0:
Remaining flits: (0 flits)
Measured flits: (0 flits)
Class 0:
Remaining flits: (0 flits)
Measured flits: (0 flits)
Time taken is 8000 cycles
====== Traffic class 0 ======

Total number of flits generated = 5530, changed lanes = 5502
Overall minimum packet latency = 8 (1 samples)
Overall average packet latency = 38.0176 (1 samples)
Overall maximum packet latency = 156 (1 samples)
Overall minimum network latency = 9 (1 samples)
Overall average network latency = 39.0176 (1 samples)
Overall maximum network latency = 157 (1 samples)
Overall minimum flit latency = 9 (1 samples)
Overall average flit latency = 39.0919 (1 samples)
Overall maximum flit latency = 157 (1 samples)
Overall minimum fragmentation = 0 (1 samples)
Overall average fragmentation = 0 (1 samples)
Overall maximum fragmentation = 0 (1 samples)
Overall minimum injected packet rate = 0.04275 (1 samples)
Overall average injected packet rate = 0.0488906 (1 samples)
Overall maximum injected packet rate = 0.054 (1 samples)
Overall minimum accepted packet rate = 0.0415 (1 samples)
Overall average accepted packet rate = 0.0490469 (1 samples)
Overall maximum accepted packet rate = 0.05525 (1 samples)
Overall minimum injected flit rate = 0.04275 (1 samples)
Overall average injected flit rate = 0.0488906 (1 samples)
Overall maximum injected flit rate = 0.054 (1 samples)
Overall minimum accepted flit rate = 0.0415 (1 samples)
Overall average accepted flit rate = 0.0490469 (1 samples)
Overall maximum accepted flit rate = 0.05525 (1 samples)
Overall average injected packet size = 1 (1 samples)
Overall average accepted packet size = 1 (1 samples)
Overall average hops = 2.95078 (1 samples)
Overall throughput of the network (flits/cycle) = 1.3825
Overall throughput of the network (packets/cycle) = 1.3825
Total run time 12.7514
