make: Nothing to be done for 'all'.
Master: Running timer....
Master: Running SRC....
BEGIN Configuration File: ./examples/bitrev
// Topology

topology = mesh;
k = 4;
n = 2;

// Routing
routing_function = dor;

// Flow control
num_vcs     = 1;
vc_buf_size = 4;
wait_for_tail_credit = 0;

// Router architecture
vc_allocator = islip;
sw_allocator = islip;
alloc_iters  = 1;

credit_delay   = 1;
routing_delay  = 1;
vc_alloc_delay = 1;
sw_alloc_delay = 1;

input_speedup     = 1;
output_speedup    = 1;
internal_speedup  = 1.0;

vc_busy_when_full = 0;

// Traffic
traffic = neighbor;
packet_size = 4;

// Simulation
sim_type = throughput;

injection_rate = 0.05;

END Configuration File: ./examples/bitrev
===== Time: 10000 =====
Class 0:
Minimum packet latency = 25
Average packet latency = 39.4255
Maximum packet latency = 169
Minimum network latency = 26
Average network latency = 35.2629
Maximum network latency = 169
Slowest packet = 111
Minimum flit latency = 22
Average flit latency = 29.5589
Maximum flit latency = 164
Slowest flit = 447
Minimum fragmentation = 0
Average fragmentation = 3.77008
Maximum fragmentation = 121
Minimum injected packet rate = 0.0003 (at node 12)
Average injected packet rate = 0.009475
Maximum injected packet rate = 0.0499 (at node 0)
Minimum accepted packet rate = 0 (at node 1)
Average accepted packet rate = 0.00910625
Maximum accepted packet rate = 0.0499 (at node 5)
Minimum injected flit rate = 0.0011 (at node 12)
Average injected flit rate = 0.0378125
Maximum injected flit rate = 0.1996 (at node 0)
Minimum accepted flit rate = 0.0002 (at node 1)
Average accepted flit rate = 0.0366125
Maximum accepted flit rate = 0.1996 (at node 5)
Total number of injected packets = 1516
Total number of injected flits = 6050
Average injected packet length = 3.99077
Total number of accepted packets = 1457
Total number of accepted flits = 5858
Average accepted packet length = 4.02059
Total in-flight flits = 206 (0 measured)
===== Time: 20000 =====
Class 0:
Minimum packet latency = 25
Average packet latency = 37.9928
Maximum packet latency = 169
Minimum network latency = 26
Average network latency = 33.6562
Maximum network latency = 169
Slowest packet = 111
Minimum flit latency = 22
Average flit latency = 28.5331
Maximum flit latency = 164
Slowest flit = 447
Minimum fragmentation = 0
Average fragmentation = 2.98997
Maximum fragmentation = 121
Minimum injected packet rate = 0.00015 (at node 12)
Average injected packet rate = 0.00673437
Maximum injected packet rate = 0.05095 (at node 0)
Minimum accepted packet rate = 0 (at node 1)
Average accepted packet rate = 0.00654375
Maximum accepted packet rate = 0.0509 (at node 5)
Minimum injected flit rate = 0.00055 (at node 12)
Average injected flit rate = 0.0268906
Maximum injected flit rate = 0.2038 (at node 0)
Minimum accepted flit rate = 0.0001 (at node 1)
Average accepted flit rate = 0.0262656
Maximum accepted flit rate = 0.2036 (at node 5)
Total number of injected packets = 2155
Total number of injected flits = 8605
Average injected packet length = 3.99304
Total number of accepted packets = 2094
Total number of accepted flits = 8405
Average accepted packet length = 4.01385
Total in-flight flits = 215 (0 measured)
===== Time: 30000 =====
Class 0:
Minimum packet latency = 25
Average packet latency = 37.5496
Maximum packet latency = 125
Minimum network latency = 26
Average network latency = 29.9405
Maximum network latency = 41
Slowest packet = 2156
Minimum flit latency = 22
Average flit latency = 26.2401
Maximum flit latency = 37
Slowest flit = 10611
Minimum fragmentation = 1
Average fragmentation = 1.10516
Maximum fragmentation = 11
Minimum injected packet rate = 0 (at node 1)
Average injected packet rate = 0.00315
Maximum injected packet rate = 0.0504 (at node 0)
Minimum accepted packet rate = 0 (at node 0)
Average accepted packet rate = 0.00315
Maximum accepted packet rate = 0.0504 (at node 5)
Minimum injected flit rate = 0 (at node 1)
Average injected flit rate = 0.0125875
Maximum injected flit rate = 0.2014 (at node 0)
Minimum accepted flit rate = 0 (at node 0)
Average accepted flit rate = 0.0126
Maximum accepted flit rate = 0.2016 (at node 5)
Total number of injected packets = 504
Total number of injected flits = 2014
Average injected packet length = 3.99603
Total number of accepted packets = 504
Total number of accepted flits = 2016
Average accepted packet length = 4
Total in-flight flits = 215 (0 measured)
===== Time: 40000 =====
Class 0:
Minimum packet latency = 25
Average packet latency = 32.1962
Maximum packet latency = 85
Minimum network latency = 26
Average network latency = 29.2644
Maximum network latency = 37
Slowest packet = 2659
Minimum flit latency = 22
Average flit latency = 25.6303
Maximum flit latency = 33
Slowest flit = 11091
Minimum fragmentation = 1
Average fragmentation = 1.0533
Maximum fragmentation = 7
Minimum injected packet rate = 0 (at node 1)
Average injected packet rate = 0.00293125
Maximum injected packet rate = 0.0469 (at node 0)
Minimum accepted packet rate = 0 (at node 0)
Average accepted packet rate = 0.0029375
Maximum accepted packet rate = 0.047 (at node 5)
Minimum injected flit rate = 0 (at node 1)
Average injected flit rate = 0.0117375
Maximum injected flit rate = 0.1878 (at node 0)
Minimum accepted flit rate = 0 (at node 0)
Average accepted flit rate = 0.01175
Maximum accepted flit rate = 0.188 (at node 5)
Total number of injected packets = 469
Total number of injected flits = 1878
Average injected packet length = 4.00426
Total number of accepted packets = 470
Total number of accepted flits = 1880
Average accepted packet length = 4
Total in-flight flits = 211 (0 measured)
===== Time: 50000 =====
Class 0:
Minimum packet latency = 25
Average packet latency = 31.6289
Maximum packet latency = 85
Minimum network latency = 26
Average network latency = 29.1465
Maximum network latency = 38
Slowest packet = 2659
Minimum flit latency = 22
Average flit latency = 25.5118
Maximum flit latency = 34
Slowest flit = 13771
Minimum fragmentation = 1
Average fragmentation = 1.04706
Maximum fragmentation = 7
Minimum injected packet rate = 0 (at node 1)
Average injected packet rate = 0.00292187
Maximum injected packet rate = 0.04675 (at node 0)
Minimum accepted packet rate = 0 (at node 0)
Average accepted packet rate = 0.002925
Maximum accepted packet rate = 0.0468 (at node 5)
Minimum injected flit rate = 0 (at node 1)
Average injected flit rate = 0.0116937
Maximum injected flit rate = 0.1871 (at node 0)
Minimum accepted flit rate = 0 (at node 0)
Average accepted flit rate = 0.0117
Maximum accepted flit rate = 0.1872 (at node 5)
Total number of injected packets = 935
Total number of injected flits = 3742
Average injected packet length = 4.00214
Total number of accepted packets = 936
Total number of accepted flits = 3744
Average accepted packet length = 4
Total in-flight flits = 211 (0 measured)
===== Time: 60000 =====
Class 0:
Minimum packet latency = 25
Average packet latency = 32.2911
Maximum packet latency = 86
Minimum network latency = 26
Average network latency = 29.2764
Maximum network latency = 38
Slowest packet = 2659
Minimum flit latency = 22
Average flit latency = 25.6308
Maximum flit latency = 34
Slowest flit = 13771
Minimum fragmentation = 1
Average fragmentation = 1.04689
Maximum fragmentation = 7
Minimum injected packet rate = 0 (at node 1)
Average injected packet rate = 0.00298333
Maximum injected packet rate = 0.0477333 (at node 0)
Minimum accepted packet rate = 0 (at node 0)
Average accepted packet rate = 0.00297917
Maximum accepted packet rate = 0.0476667 (at node 5)
Minimum injected flit rate = 0 (at node 1)
Average injected flit rate = 0.0119375
Maximum injected flit rate = 0.191 (at node 0)
Minimum accepted flit rate = 0 (at node 0)
Average accepted flit rate = 0.0119229
Maximum accepted flit rate = 0.190767 (at node 5)
Total number of injected packets = 1432
Total number of injected flits = 5730
Average injected packet length = 4.0014
Total number of accepted packets = 1430
Total number of accepted flits = 5723
Average accepted packet length = 4.0021
Total in-flight flits = 220 (9 measured)
===== Time: 70000 =====
Class 0:
Minimum packet latency = 25
Average packet latency = 32.3518
Maximum packet latency = 86
Minimum network latency = 26
Average network latency = 29.2738
Maximum network latency = 38
Slowest packet = 2659
Minimum flit latency = 22
Average flit latency = 25.6288
Maximum flit latency = 34
Slowest flit = 13771
Minimum fragmentation = 1
Average fragmentation = 1.04423
Maximum fragmentation = 7
Minimum injected packet rate = 0 (at node 1)
Average injected packet rate = 0.00296719
Maximum injected packet rate = 0.047475 (at node 0)
Minimum accepted packet rate = 0 (at node 0)
Average accepted packet rate = 0.00296875
Maximum accepted packet rate = 0.0475 (at node 5)
Minimum injected flit rate = 0 (at node 1)
Average injected flit rate = 0.0118719
Maximum injected flit rate = 0.18995 (at node 0)
Minimum accepted flit rate = 0 (at node 0)
Average accepted flit rate = 0.011875
Maximum accepted flit rate = 0.19 (at node 5)
Total number of injected packets = 1899
Total number of injected flits = 7598
Average injected packet length = 4.00105
Total number of accepted packets = 1900
Total number of accepted flits = 7600
Average accepted packet length = 4
Total in-flight flits = 211 (0 measured)
Draining remaining packets ...
Class 0:
Remaining flits: 26 27 72 73 74 75 168 169 170 171 [...] (211 flits)
Measured flits: (0 flits)
Class 0:
Remaining flits: 26 27 72 73 74 75 168 169 170 171 [...] (211 flits)
Measured flits: (0 flits)
Class 0:
Remaining flits: 26 27 72 73 74 75 168 169 170 171 [...] (211 flits)
Measured flits: (0 flits)
Class 0:
Remaining flits: 26 27 72 73 74 75 168 169 170 171 [...] (211 flits)
Measured flits: (0 flits)
Class 0:
Remaining flits: 26 27 72 73 74 75 168 169 170 171 [...] (211 flits)
Measured flits: (0 flits)
Class 0:
Remaining flits: 26 27 72 73 74 75 168 169 170 171 [...] (211 flits)
Measured flits: (0 flits)
Class 0:
Remaining flits: 26 27 72 73 74 75 168 169 170 171 [...] (211 flits)
Measured flits: (0 flits)
Class 0:
Remaining flits: 26 27 72 73 74 75 168 169 170 171 [...] (211 flits)
Measured flits: (0 flits)
Class 0:
Remaining flits: 26 27 72 73 74 75 168 169 170 171 [...] (211 flits)
Measured flits: (0 flits)
Class 0:
Remaining flits: 26 27 72 73 74 75 168 169 170 171 [...] (211 flits)
Measured flits: (0 flits)
Class 0:
Remaining flits: 26 27 72 73 74 75 168 169 170 171 [...] (211 flits)
Measured flits: (0 flits)
Class 0:
Remaining flits: 26 27 72 73 74 75 168 169 170 171 [...] (211 flits)
Measured flits: (0 flits)
Class 0:
Remaining flits: 26 27 72 73 74 75 168 169 170 171 [...] (211 flits)
Measured flits: (0 flits)
Class 0:
Remaining flits: 26 27 72 73 74 75 168 169 170 171 [...] (211 flits)
Measured flits: (0 flits)
Class 0:
Remaining flits: 26 27 72 73 74 75 168 169 170 171 [...] (211 flits)
Measured flits: (0 flits)
Class 0:
Remaining flits: 26 27 72 73 74 75 168 169 170 171 [...] (211 flits)
Measured flits: (0 flits)
Class 0:
Remaining flits: 26 27 72 73 74 75 168 169 170 171 [...] (211 flits)
Measured flits: (0 flits)
Class 0:
Remaining flits: 26 27 72 73 74 75 168 169 170 171 [...] (211 flits)
Measured flits: (0 flits)
Class 0:
Remaining flits: 26 27 72 73 74 75 168 169 170 171 [...] (211 flits)
Measured flits: (0 flits)
Class 0:
Remaining flits: 26 27 72 73 74 75 168 169 170 171 [...] (211 flits)
Measured flits: (0 flits)
Class 0:
Remaining flits: 26 27 72 73 74 75 168 169 170 171 [...] (211 flits)
Measured flits: (0 flits)
Class 0:
Remaining flits: 26 27 72 73 74 75 168 169 170 171 [...] (211 flits)
Measured flits: (0 flits)
Class 0:
Remaining flits: 26 27 72 73 74 75 168 169 170 171 [...] (211 flits)
Measured flits: (0 flits)
Class 0:
Remaining flits: 26 27 72 73 74 75 168 169 170 171 [...] (211 flits)
Measured flits: (0 flits)
Class 0:
Remaining flits: 26 27 72 73 74 75 168 169 170 171 [...] (211 flits)
Measured flits: (0 flits)
Class 0:
Remaining flits: 26 27 72 73 74 75 168 169 170 171 [...] (211 flits)
Measured flits: (0 flits)
Class 0:
Remaining flits: 26 27 72 73 74 75 168 169 170 171 [...] (211 flits)
Measured flits: (0 flits)
Class 0:
Remaining flits: 26 27 72 73 74 75 168 169 170 171 [...] (211 flits)
Measured flits: (0 flits)
Class 0:
Remaining flits: 26 27 72 73 74 75 168 169 170 171 [...] (211 flits)
Measured flits: (0 flits)
Class 0:
Remaining flits: 26 27 72 73 74 75 168 169 170 171 [...] (211 flits)
Measured flits: (0 flits)
Class 0:
Remaining flits: 26 27 72 73 74 75 168 169 170 171 [...] (211 flits)
Measured flits: (0 flits)
Class 0:
Remaining flits: 26 27 72 73 74 75 168 169 170 171 [...] (211 flits)
Measured flits: (0 flits)
Class 0:
Remaining flits: 26 27 72 73 74 75 168 169 170 171 [...] (211 flits)
Measured flits: (0 flits)
Class 0:
Remaining flits: 26 27 72 73 74 75 168 169 170 171 [...] (211 flits)
Measured flits: (0 flits)
Class 0:
Remaining flits: 26 27 72 73 74 75 168 169 170 171 [...] (211 flits)
Measured flits: (0 flits)
Class 0:
Remaining flits: 26 27 72 73 74 75 168 169 170 171 [...] (211 flits)
Measured flits: (0 flits)
Class 0:
Remaining flits: 26 27 72 73 74 75 168 169 170 171 [...] (211 flits)
Measured flits: (0 flits)
Class 0:
Remaining flits: 26 27 72 73 74 75 168 169 170 171 [...] (211 flits)
Measured flits: (0 flits)
Class 0:
Remaining flits: 26 27 72 73 74 75 168 169 170 171 [...] (211 flits)
Measured flits: (0 flits)
Class 0:
Remaining flits: 26 27 72 73 74 75 168 169 170 171 [...] (211 flits)
Measured flits: (0 flits)
Class 0:
Remaining flits: 26 27 72 73 74 75 168 169 170 171 [...] (211 flits)
Measured flits: (0 flits)
Class 0:
Remaining flits: 26 27 72 73 74 75 168 169 170 171 [...] (211 flits)
Measured flits: (0 flits)
Class 0:
Remaining flits: 26 27 72 73 74 75 168 169 170 171 [...] (211 flits)
Measured flits: (0 flits)
Class 0:
Remaining flits: 26 27 72 73 74 75 168 169 170 171 [...] (211 flits)
Measured flits: (0 flits)
Class 0:
Remaining flits: 26 27 72 73 74 75 168 169 170 171 [...] (211 flits)
Measured flits: (0 flits)
Class 0:
Remaining flits: 26 27 72 73 74 75 168 169 170 171 [...] (211 flits)
Measured flits: (0 flits)
Class 0:
Remaining flits: 26 27 72 73 74 75 168 169 170 171 [...] (211 flits)
Measured flits: (0 flits)
Class 0:
Remaining flits: 26 27 72 73 74 75 168 169 170 171 [...] (211 flits)
Measured flits: (0 flits)
Class 0:
Remaining flits: 26 27 72 73 74 75 168 169 170 171 [...] (211 flits)
Measured flits: (0 flits)
Class 0:
Remaining flits: 26 27 72 73 74 75 168 169 170 171 [...] (211 flits)
Measured flits: (0 flits)
Class 0:
Remaining flits: 26 27 72 73 74 75 168 169 170 171 [...] (211 flits)
Measured flits: (0 flits)
Class 0:
Remaining flits: 26 27 72 73 74 75 168 169 170 171 [...] (211 flits)
Measured flits: (0 flits)
Class 0:
Remaining flits: 26 27 72 73 74 75 168 169 170 171 [...] (211 flits)
Measured flits: (0 flits)
Class 0:
Remaining flits: 26 27 72 73 74 75 168 169 170 171 [...] (211 flits)
Measured flits: (0 flits)
Class 0:
Remaining flits: 26 27 72 73 74 75 168 169 170 171 [...] (211 flits)
Measured flits: (0 flits)
Class 0:
Remaining flits: 26 27 72 73 74 75 168 169 170 171 [...] (211 flits)
Measured flits: (0 flits)
Class 0:
Remaining flits: 26 27 72 73 74 75 168 169 170 171 [...] (211 flits)
Measured flits: (0 flits)
Class 0:
Remaining flits: 26 27 72 73 74 75 168 169 170 171 [...] (211 flits)
Measured flits: (0 flits)
Class 0:
Remaining flits: 26 27 72 73 74 75 168 169 170 171 [...] (211 flits)
Measured flits: (0 flits)
Class 0:
Remaining flits: 26 27 72 73 74 75 168 169 170 171 [...] (211 flits)
Measured flits: (0 flits)
Class 0:
Remaining flits: 26 27 72 73 74 75 168 169 170 171 [...] (211 flits)
Measured flits: (0 flits)
Class 0:
Remaining flits: 26 27 72 73 74 75 168 169 170 171 [...] (211 flits)
Measured flits: (0 flits)
Class 0:
Remaining flits: 26 27 72 73 74 75 168 169 170 171 [...] (211 flits)
Measured flits: (0 flits)
Class 0:
Remaining flits: 26 27 72 73 74 75 168 169 170 171 [...] (211 flits)
Measured flits: (0 flits)
Class 0:
Remaining flits: 26 27 72 73 74 75 168 169 170 171 [...] (211 flits)
Measured flits: (0 flits)
Class 0:
Remaining flits: 26 27 72 73 74 75 168 169 170 171 [...] (211 flits)
Measured flits: (0 flits)
Class 0:
Remaining flits: 26 27 72 73 74 75 168 169 170 171 [...] (211 flits)
Measured flits: (0 flits)
Class 0:
Remaining flits: 26 27 72 73 74 75 168 169 170 171 [...] (211 flits)
Measured flits: (0 flits)
Class 0:
Remaining flits: 26 27 72 73 74 75 168 169 170 171 [...] (211 flits)
Measured flits: (0 flits)
Class 0:
Remaining flits: 26 27 72 73 74 75 168 169 170 171 [...] (211 flits)
Measured flits: (0 flits)
Class 0:
Remaining flits: 26 27 72 73 74 75 168 169 170 171 [...] (211 flits)
Measured flits: (0 flits)
Class 0:
Remaining flits: 26 27 72 73 74 75 168 169 170 171 [...] (211 flits)
Measured flits: (0 flits)
Class 0:
Remaining flits: 26 27 72 73 74 75 168 169 170 171 [...] (211 flits)
Measured flits: (0 flits)
Class 0:
Remaining flits: 26 27 72 73 74 75 168 169 170 171 [...] (211 flits)
Measured flits: (0 flits)
Class 0:
Remaining flits: 26 27 72 73 74 75 168 169 170 171 [...] (211 flits)
Measured flits: (0 flits)
Class 0:
Remaining flits: 26 27 72 73 74 75 168 169 170 171 [...] (211 flits)
Measured flits: (0 flits)
Class 0:
Remaining flits: 26 27 72 73 74 75 168 169 170 171 [...] (211 flits)
Measured flits: (0 flits)
Class 0:
Remaining flits: 26 27 72 73 74 75 168 169 170 171 [...] (211 flits)
Measured flits: (0 flits)
Class 0:
Remaining flits: 26 27 72 73 74 75 168 169 170 171 [...] (211 flits)
Measured flits: (0 flits)
Class 0:
Remaining flits: 26 27 72 73 74 75 168 169 170 171 [...] (211 flits)
Measured flits: (0 flits)
Class 0:
Remaining flits: 26 27 72 73 74 75 168 169 170 171 [...] (211 flits)
Measured flits: (0 flits)
Class 0:
Remaining flits: 26 27 72 73 74 75 168 169 170 171 [...] (211 flits)
Measured flits: (0 flits)
Class 0:
Remaining flits: 26 27 72 73 74 75 168 169 170 171 [...] (211 flits)
Measured flits: (0 flits)
Class 0:
Remaining flits: 26 27 72 73 74 75 168 169 170 171 [...] (211 flits)
Measured flits: (0 flits)
Class 0:
Remaining flits: 26 27 72 73 74 75 168 169 170 171 [...] (211 flits)
Measured flits: (0 flits)
Class 0:
Remaining flits: 26 27 72 73 74 75 168 169 170 171 [...] (211 flits)
Measured flits: (0 flits)
Class 0:
Remaining flits: 26 27 72 73 74 75 168 169 170 171 [...] (211 flits)
Measured flits: (0 flits)
Class 0:
Remaining flits: 26 27 72 73 74 75 168 169 170 171 [...] (211 flits)
Measured flits: (0 flits)
Class 0:
Remaining flits: 26 27 72 73 74 75 168 169 170 171 [...] (211 flits)
Measured flits: (0 flits)
Class 0:
Remaining flits: 26 27 72 73 74 75 168 169 170 171 [...] (211 flits)
Measured flits: (0 flits)
Class 0:
Remaining flits: 26 27 72 73 74 75 168 169 170 171 [...] (211 flits)
Measured flits: (0 flits)
Class 0:
Remaining flits: 26 27 72 73 74 75 168 169 170 171 [...] (211 flits)
Measured flits: (0 flits)
Class 0:
Remaining flits: 26 27 72 73 74 75 168 169 170 171 [...] (211 flits)
Measured flits: (0 flits)
Class 0:
Remaining flits: 26 27 72 73 74 75 168 169 170 171 [...] (211 flits)
Measured flits: (0 flits)
Class 0:
Remaining flits: 26 27 72 73 74 75 168 169 170 171 [...] (211 flits)
Measured flits: (0 flits)
Class 0:
Remaining flits: 26 27 72 73 74 75 168 169 170 171 [...] (211 flits)
Measured flits: (0 flits)
Class 0:
Remaining flits: 26 27 72 73 74 75 168 169 170 171 [...] (211 flits)
Measured flits: (0 flits)
Class 0:
Remaining flits: 26 27 72 73 74 75 168 169 170 171 [...] (211 flits)
Measured flits: (0 flits)
Class 0:
Remaining flits: 26 27 72 73 74 75 168 169 170 171 [...] (211 flits)
Measured flits: (0 flits)
Class 0:
Remaining flits: 26 27 72 73 74 75 168 169 170 171 [...] (211 flits)
Measured flits: (0 flits)
Class 0:
Remaining flits: 26 27 72 73 74 75 168 169 170 171 [...] (211 flits)
Measured flits: (0 flits)
Time taken is 71000 cycles
====== Traffic class 0 ======

Total number of flits generated = 18232, changed lanes = 0
Overall minimum packet latency = 25 (1 samples)
Overall average packet latency = 32.3518 (1 samples)
Overall maximum packet latency = 86 (1 samples)
Overall minimum network latency = 26 (1 samples)
Overall average network latency = 29.2738 (1 samples)
Overall maximum network latency = 38 (1 samples)
Overall minimum flit latency = 22 (1 samples)
Overall average flit latency = 25.6288 (1 samples)
Overall maximum flit latency = 34 (1 samples)
Overall minimum fragmentation = 1 (1 samples)
Overall average fragmentation = 1.04423 (1 samples)
Overall maximum fragmentation = 7 (1 samples)
Overall minimum injected packet rate = 0 (1 samples)
Overall average injected packet rate = 0.00296719 (1 samples)
Overall maximum injected packet rate = 0.047475 (1 samples)
Overall minimum accepted packet rate = 0 (1 samples)
Overall average accepted packet rate = 0.00296875 (1 samples)
Overall maximum accepted packet rate = 0.0475 (1 samples)
Overall minimum injected flit rate = 0 (1 samples)
Overall average injected flit rate = 0.0118719 (1 samples)
Overall maximum injected flit rate = 0.18995 (1 samples)
Overall minimum accepted flit rate = 0 (1 samples)
Overall average accepted flit rate = 0.011875 (1 samples)
Overall maximum accepted flit rate = 0.19 (1 samples)
Overall average injected packet size = 4.00105 (1 samples)
Overall average accepted packet size = 4 (1 samples)
Overall average hops = 3 (1 samples)
Overall throughput of the network (flits/cycle) = 0.450525
Overall throughput of the network (packets/cycle) = 0.11245
Total run time 53414.7
