make: Nothing to be done for 'all'.
Master: Running timer....
Master: Running SRC....
BEGIN Configuration File: ./examples/bitrev
// Topology

topology = mesh;
k = 4;
n = 2;

// Routing
routing_function = dor;

// Flow control
num_vcs     = 1;
vc_buf_size = 4;
wait_for_tail_credit = 0;

// Router architecture
vc_allocator = islip;
sw_allocator = islip;
alloc_iters  = 1;

credit_delay   = 1;
routing_delay  = 1;
vc_alloc_delay = 1;
sw_alloc_delay = 1;

input_speedup     = 1;
output_speedup    = 1;
internal_speedup  = 1.0;

vc_busy_when_full = 0;

// Traffic
traffic = neighbor;
packet_size = 3;

// Simulation
sim_type = throughput;

injection_rate = 0.05;

END Configuration File: ./examples/bitrev
===== Time: 10000 =====
Class 0:
Minimum packet latency = 24
Average packet latency = 41.5371
Maximum packet latency = 213
Minimum network latency = 25
Average network latency = 41.2988
Maximum network latency = 214
Slowest packet = 7209
Minimum flit latency = 22
Average flit latency = 35.1962
Maximum flit latency = 210
Slowest flit = 21629
Minimum fragmentation = 0
Average fragmentation = 5.34276
Maximum fragmentation = 187
Minimum injected packet rate = 0.0468 (at node 1)
Average injected packet rate = 0.0494625
Maximum injected packet rate = 0.0532 (at node 5)
Minimum accepted packet rate = 0.0467 (at node 6)
Average accepted packet rate = 0.0493063
Maximum accepted packet rate = 0.0529 (at node 1)
Minimum injected flit rate = 0.1404 (at node 1)
Average injected flit rate = 0.14835
Maximum injected flit rate = 0.1594 (at node 5)
Minimum accepted flit rate = 0.1401 (at node 6)
Average accepted flit rate = 0.147962
Maximum accepted flit rate = 0.1587 (at node 1)
Total number of injected packets = 7914
Total number of injected flits = 23736
Average injected packet length = 2.99924
Total number of accepted packets = 7889
Total number of accepted flits = 23674
Average accepted packet length = 3.00089
Total in-flight flits = 68 (0 measured)
===== Time: 20000 =====
Class 0:
Minimum packet latency = 24
Average packet latency = 41.4579
Maximum packet latency = 213
Minimum network latency = 25
Average network latency = 41.1222
Maximum network latency = 214
Slowest packet = 7209
Minimum flit latency = 22
Average flit latency = 35.0581
Maximum flit latency = 210
Slowest flit = 21629
Minimum fragmentation = 0
Average fragmentation = 5.23259
Maximum fragmentation = 187
Minimum injected packet rate = 0.0476 (at node 3)
Average injected packet rate = 0.0500375
Maximum injected packet rate = 0.05235 (at node 15)
Minimum accepted packet rate = 0.0474 (at node 4)
Average accepted packet rate = 0.0499406
Maximum accepted packet rate = 0.0523 (at node 0)
Minimum injected flit rate = 0.1428 (at node 3)
Average injected flit rate = 0.150103
Maximum injected flit rate = 0.15705 (at node 15)
Minimum accepted flit rate = 0.1422 (at node 4)
Average accepted flit rate = 0.149838
Maximum accepted flit rate = 0.1569 (at node 0)
Total number of injected packets = 16012
Total number of injected flits = 48033
Average injected packet length = 2.99981
Total number of accepted packets = 15981
Total number of accepted flits = 47948
Average accepted packet length = 3.00031
Total in-flight flits = 88 (0 measured)
===== Time: 30000 =====
Class 0:
Minimum packet latency = 24
Average packet latency = 41.6599
Maximum packet latency = 185
Minimum network latency = 25
Average network latency = 41.275
Maximum network latency = 172
Slowest packet = 18929
Minimum flit latency = 22
Average flit latency = 35.1925
Maximum flit latency = 168
Slowest flit = 56789
Minimum fragmentation = 0
Average fragmentation = 5.2934
Maximum fragmentation = 143
Minimum injected packet rate = 0.0464 (at node 8)
Average injected packet rate = 0.0495813
Maximum injected packet rate = 0.0537 (at node 14)
Minimum accepted packet rate = 0.0466 (at node 13)
Average accepted packet rate = 0.0496125
Maximum accepted packet rate = 0.0537 (at node 3)
Minimum injected flit rate = 0.1392 (at node 8)
Average injected flit rate = 0.14875
Maximum injected flit rate = 0.1611 (at node 14)
Minimum accepted flit rate = 0.1398 (at node 13)
Average accepted flit rate = 0.148856
Maximum accepted flit rate = 0.1611 (at node 3)
Total number of injected packets = 7933
Total number of injected flits = 23800
Average injected packet length = 3.00013
Total number of accepted packets = 7938
Total number of accepted flits = 23817
Average accepted packet length = 3.00038
Total in-flight flits = 70 (0 measured)
===== Time: 40000 =====
Class 0:
Minimum packet latency = 24
Average packet latency = 41.2918
Maximum packet latency = 163
Minimum network latency = 25
Average network latency = 40.9227
Maximum network latency = 163
Slowest packet = 29797
Minimum flit latency = 22
Average flit latency = 34.9563
Maximum flit latency = 158
Slowest flit = 89393
Minimum fragmentation = 0
Average fragmentation = 5.11515
Maximum fragmentation = 119
Minimum injected packet rate = 0.046 (at node 0)
Average injected packet rate = 0.0502
Maximum injected packet rate = 0.0528 (at node 12)
Minimum accepted packet rate = 0.046 (at node 5)
Average accepted packet rate = 0.05015
Maximum accepted packet rate = 0.053 (at node 1)
Minimum injected flit rate = 0.138 (at node 0)
Average injected flit rate = 0.150588
Maximum injected flit rate = 0.1585 (at node 12)
Minimum accepted flit rate = 0.138 (at node 5)
Average accepted flit rate = 0.15045
Maximum accepted flit rate = 0.1592 (at node 1)
Total number of injected packets = 8032
Total number of injected flits = 24094
Average injected packet length = 2.99975
Total number of accepted packets = 8024
Total number of accepted flits = 24072
Average accepted packet length = 3
Total in-flight flits = 94 (94 measured)
===== Time: 50000 =====
Class 0:
Minimum packet latency = 24
Average packet latency = 41.1945
Maximum packet latency = 184
Minimum network latency = 25
Average network latency = 40.8075
Maximum network latency = 185
Slowest packet = 39460
Minimum flit latency = 22
Average flit latency = 34.8799
Maximum flit latency = 183
Slowest flit = 118382
Minimum fragmentation = 0
Average fragmentation = 5.04804
Maximum fragmentation = 144
Minimum injected packet rate = 0.0479 (at node 6)
Average injected packet rate = 0.0503031
Maximum injected packet rate = 0.05245 (at node 2)
Minimum accepted packet rate = 0.04785 (at node 4)
Average accepted packet rate = 0.0503
Maximum accepted packet rate = 0.0524 (at node 7)
Minimum injected flit rate = 0.1437 (at node 6)
Average injected flit rate = 0.150909
Maximum injected flit rate = 0.15735 (at node 2)
Minimum accepted flit rate = 0.1436 (at node 4)
Average accepted flit rate = 0.150894
Maximum accepted flit rate = 0.1572 (at node 7)
Total number of injected packets = 16097
Total number of injected flits = 48291
Average injected packet length = 3
Total number of accepted packets = 16096
Total number of accepted flits = 48286
Average accepted packet length = 2.99988
Total in-flight flits = 75 (75 measured)
===== Time: 60000 =====
Class 0:
Minimum packet latency = 24
Average packet latency = 41.2261
Maximum packet latency = 224
Minimum network latency = 25
Average network latency = 40.8307
Maximum network latency = 225
Slowest packet = 46586
Minimum flit latency = 22
Average flit latency = 34.8936
Maximum flit latency = 222
Slowest flit = 139760
Minimum fragmentation = 0
Average fragmentation = 5.07262
Maximum fragmentation = 198
Minimum injected packet rate = 0.0482333 (at node 3)
Average injected packet rate = 0.0501896
Maximum injected packet rate = 0.0535333 (at node 14)
Minimum accepted packet rate = 0.0481333 (at node 4)
Average accepted packet rate = 0.0501708
Maximum accepted packet rate = 0.0534667 (at node 3)
Minimum injected flit rate = 0.144633 (at node 3)
Average injected flit rate = 0.150558
Maximum injected flit rate = 0.1606 (at node 14)
Minimum accepted flit rate = 0.1444 (at node 4)
Average accepted flit rate = 0.150508
Maximum accepted flit rate = 0.160467 (at node 3)
Total number of injected packets = 24091
Total number of injected flits = 72268
Average injected packet length = 2.99979
Total number of accepted packets = 24082
Total number of accepted flits = 72244
Average accepted packet length = 2.99992
Total in-flight flits = 99 (99 measured)
Draining remaining packets ...
Class 0:
Remaining flits: 143975 143987 144002 144004 144005 144017 144021 144022 144023 144030 [...] (73 flits)
Measured flits: 143975 143987 144002 144004 144005 144017 144021 144022 144023 144030 [...] (73 flits)
Class 0:
Remaining flits: 143987 144047 144051 144052 144053 144060 144061 144062 144073 144074 [...] (35 flits)
Measured flits: 143987 144047 144051 144052 144053 144060 144061 144062 144073 144074 [...] (35 flits)
Class 0:
Remaining flits: 143987 144060 144061 144062 144086 144088 144089 144090 144091 144092 [...] (17 flits)
Measured flits: 143987 144060 144061 144062 144086 144088 144089 144090 144091 144092 [...] (17 flits)
Class 0:
Remaining flits: 143987 144086 144088 144089 144092 144100 144101 144104 (8 flits)
Measured flits: 143987 144086 144088 144089 144092 144100 144101 144104 (8 flits)
Class 0:
Remaining flits: 143987 144086 144088 144089 144092 144100 144101 144104 (8 flits)
Measured flits: 143987 144086 144088 144089 144092 144100 144101 144104 (8 flits)
Class 0:
Remaining flits: 143987 144086 144088 144089 144092 144100 144101 144104 (8 flits)
Measured flits: 143987 144086 144088 144089 144092 144100 144101 144104 (8 flits)
Class 0:
Remaining flits: 143987 144086 144088 144089 144092 144100 144101 144104 (8 flits)
Measured flits: 143987 144086 144088 144089 144092 144100 144101 144104 (8 flits)
Class 0:
Remaining flits: 143987 144086 144088 144089 144092 144100 144101 144104 (8 flits)
Measured flits: 143987 144086 144088 144089 144092 144100 144101 144104 (8 flits)
Class 0:
Remaining flits: 143987 144086 144088 144089 144092 144100 144101 144104 (8 flits)
Measured flits: 143987 144086 144088 144089 144092 144100 144101 144104 (8 flits)
Class 0:
Remaining flits: 143987 144086 144088 144089 144092 144100 144101 144104 (8 flits)
Measured flits: 143987 144086 144088 144089 144092 144100 144101 144104 (8 flits)
Class 0:
Remaining flits: 143987 144086 144088 144089 144092 144100 144101 144104 (8 flits)
Measured flits: 143987 144086 144088 144089 144092 144100 144101 144104 (8 flits)
Class 0:
Remaining flits: 143987 144086 144088 144089 144092 144100 144101 144104 (8 flits)
Measured flits: 143987 144086 144088 144089 144092 144100 144101 144104 (8 flits)
Class 0:
Remaining flits: 143987 144086 144088 144089 144092 144100 144101 144104 (8 flits)
Measured flits: 143987 144086 144088 144089 144092 144100 144101 144104 (8 flits)
Class 0:
Remaining flits: 143987 144086 144088 144089 144092 144100 144101 144104 (8 flits)
Measured flits: 143987 144086 144088 144089 144092 144100 144101 144104 (8 flits)
Class 0:
Remaining flits: 143987 144086 144088 144089 144092 144100 144101 144104 (8 flits)
Measured flits: 143987 144086 144088 144089 144092 144100 144101 144104 (8 flits)
Class 0:
Remaining flits: 143987 144086 144088 144089 144092 144100 144101 144104 (8 flits)
Measured flits: 143987 144086 144088 144089 144092 144100 144101 144104 (8 flits)
Class 0:
Remaining flits: 143987 144086 144088 144089 144092 144100 144101 144104 (8 flits)
Measured flits: 143987 144086 144088 144089 144092 144100 144101 144104 (8 flits)
Class 0:
Remaining flits: 143987 144086 144088 144089 144092 144100 144101 144104 (8 flits)
Measured flits: 143987 144086 144088 144089 144092 144100 144101 144104 (8 flits)
Class 0:
Remaining flits: 143987 144086 144088 144089 144092 144100 144101 144104 (8 flits)
Measured flits: 143987 144086 144088 144089 144092 144100 144101 144104 (8 flits)
Class 0:
Remaining flits: 143987 144086 144088 144089 144092 144100 144101 144104 (8 flits)
Measured flits: 143987 144086 144088 144089 144092 144100 144101 144104 (8 flits)
Class 0:
Remaining flits: 143987 144086 144088 144089 144092 144100 144101 144104 (8 flits)
Measured flits: 143987 144086 144088 144089 144092 144100 144101 144104 (8 flits)
Class 0:
Remaining flits: 143987 144086 144088 144089 144092 144100 144101 144104 (8 flits)
Measured flits: 143987 144086 144088 144089 144092 144100 144101 144104 (8 flits)
Class 0:
Remaining flits: 143987 144086 144088 144089 144092 144100 144101 144104 (8 flits)
Measured flits: 143987 144086 144088 144089 144092 144100 144101 144104 (8 flits)
Class 0:
Remaining flits: 143987 144086 144088 144089 144092 144100 144101 144104 (8 flits)
Measured flits: 143987 144086 144088 144089 144092 144100 144101 144104 (8 flits)
Class 0:
Remaining flits: 143987 144086 144088 144089 144092 144100 144101 144104 (8 flits)
Measured flits: 143987 144086 144088 144089 144092 144100 144101 144104 (8 flits)
Class 0:
Remaining flits: 143987 144086 144088 144089 144092 144100 144101 144104 (8 flits)
Measured flits: 143987 144086 144088 144089 144092 144100 144101 144104 (8 flits)
Class 0:
Remaining flits: 143987 144086 144088 144089 144092 144100 144101 144104 (8 flits)
Measured flits: 143987 144086 144088 144089 144092 144100 144101 144104 (8 flits)
Class 0:
Remaining flits: 143987 144086 144088 144089 144092 144100 144101 144104 (8 flits)
Measured flits: 143987 144086 144088 144089 144092 144100 144101 144104 (8 flits)
Class 0:
Remaining flits: 143987 144086 144088 144089 144092 144100 144101 144104 (8 flits)
Measured flits: 143987 144086 144088 144089 144092 144100 144101 144104 (8 flits)
Class 0:
Remaining flits: 143987 144086 144088 144089 144092 144100 144101 144104 (8 flits)
Measured flits: 143987 144086 144088 144089 144092 144100 144101 144104 (8 flits)
Class 0:
Remaining flits: 143987 144086 144088 144089 144092 144100 144101 144104 (8 flits)
Measured flits: 143987 144086 144088 144089 144092 144100 144101 144104 (8 flits)
Class 0:
Remaining flits: 143987 144086 144088 144089 144092 144100 144101 144104 (8 flits)
Measured flits: 143987 144086 144088 144089 144092 144100 144101 144104 (8 flits)
Class 0:
Remaining flits: 143987 144086 144088 144089 144092 144100 144101 144104 (8 flits)
Measured flits: 143987 144086 144088 144089 144092 144100 144101 144104 (8 flits)
Class 0:
Remaining flits: 143987 144086 144088 144089 144092 144100 144101 144104 (8 flits)
Measured flits: 143987 144086 144088 144089 144092 144100 144101 144104 (8 flits)
Class 0:
Remaining flits: 143987 144086 144088 144089 144092 144100 144101 144104 (8 flits)
Measured flits: 143987 144086 144088 144089 144092 144100 144101 144104 (8 flits)
Class 0:
Remaining flits: 143987 144086 144088 144089 144092 144100 144101 144104 (8 flits)
Measured flits: 143987 144086 144088 144089 144092 144100 144101 144104 (8 flits)
Class 0:
Remaining flits: 143987 144086 144088 144089 144092 144100 144101 144104 (8 flits)
Measured flits: 143987 144086 144088 144089 144092 144100 144101 144104 (8 flits)
Class 0:
Remaining flits: 143987 144086 144088 144089 144092 144100 144101 144104 (8 flits)
Measured flits: 143987 144086 144088 144089 144092 144100 144101 144104 (8 flits)
Class 0:
Remaining flits: 143987 144086 144088 144089 144092 144100 144101 144104 (8 flits)
Measured flits: 143987 144086 144088 144089 144092 144100 144101 144104 (8 flits)
Class 0:
Remaining flits: 143987 144086 144088 144089 144092 144100 144101 144104 (8 flits)
Measured flits: 143987 144086 144088 144089 144092 144100 144101 144104 (8 flits)
Class 0:
Remaining flits: 143987 144086 144088 144089 144092 144100 144101 144104 (8 flits)
Measured flits: 143987 144086 144088 144089 144092 144100 144101 144104 (8 flits)
Class 0:
Remaining flits: 143987 144086 144088 144089 144092 144100 144101 144104 (8 flits)
Measured flits: 143987 144086 144088 144089 144092 144100 144101 144104 (8 flits)
Class 0:
Remaining flits: 143987 144086 144088 144089 144092 144100 144101 144104 (8 flits)
Measured flits: 143987 144086 144088 144089 144092 144100 144101 144104 (8 flits)
Class 0:
Remaining flits: 143987 144086 144088 144089 144092 144100 144101 144104 (8 flits)
Measured flits: 143987 144086 144088 144089 144092 144100 144101 144104 (8 flits)
Class 0:
Remaining flits: 143987 144086 144088 144089 144092 144100 144101 144104 (8 flits)
Measured flits: 143987 144086 144088 144089 144092 144100 144101 144104 (8 flits)
Class 0:
Remaining flits: 143987 144086 144088 144089 144092 144100 144101 144104 (8 flits)
Measured flits: 143987 144086 144088 144089 144092 144100 144101 144104 (8 flits)
Class 0:
Remaining flits: 143987 144086 144088 144089 144092 144100 144101 144104 (8 flits)
Measured flits: 143987 144086 144088 144089 144092 144100 144101 144104 (8 flits)
Class 0:
Remaining flits: 143987 144086 144088 144089 144092 144100 144101 144104 (8 flits)
Measured flits: 143987 144086 144088 144089 144092 144100 144101 144104 (8 flits)
Class 0:
Remaining flits: 143987 144086 144088 144089 144092 144100 144101 144104 (8 flits)
Measured flits: 143987 144086 144088 144089 144092 144100 144101 144104 (8 flits)
Class 0:
Remaining flits: 143987 144086 144088 144089 144092 144100 144101 144104 (8 flits)
Measured flits: 143987 144086 144088 144089 144092 144100 144101 144104 (8 flits)
Class 0:
Remaining flits: 143987 144086 144088 144089 144092 144100 144101 144104 (8 flits)
Measured flits: 143987 144086 144088 144089 144092 144100 144101 144104 (8 flits)
Class 0:
Remaining flits: 143987 144086 144088 144089 144092 144100 144101 144104 (8 flits)
Measured flits: 143987 144086 144088 144089 144092 144100 144101 144104 (8 flits)
Class 0:
Remaining flits: 143987 144086 144088 144089 144092 144100 144101 144104 (8 flits)
Measured flits: 143987 144086 144088 144089 144092 144100 144101 144104 (8 flits)
Class 0:
Remaining flits: 143987 144086 144088 144089 144092 144100 144101 144104 (8 flits)
Measured flits: 143987 144086 144088 144089 144092 144100 144101 144104 (8 flits)
Class 0:
Remaining flits: 143987 144086 144088 144089 144092 144100 144101 144104 (8 flits)
Measured flits: 143987 144086 144088 144089 144092 144100 144101 144104 (8 flits)
Class 0:
Remaining flits: 143987 144086 144088 144089 144092 144100 144101 144104 (8 flits)
Measured flits: 143987 144086 144088 144089 144092 144100 144101 144104 (8 flits)
Class 0:
Remaining flits: 143987 144086 144088 144089 144092 144100 144101 144104 (8 flits)
Measured flits: 143987 144086 144088 144089 144092 144100 144101 144104 (8 flits)
Class 0:
Remaining flits: 143987 144086 144088 144089 144092 144100 144101 144104 (8 flits)
Measured flits: 143987 144086 144088 144089 144092 144100 144101 144104 (8 flits)
Class 0:
Remaining flits: 143987 144086 144088 144089 144092 144100 144101 144104 (8 flits)
Measured flits: 143987 144086 144088 144089 144092 144100 144101 144104 (8 flits)
Class 0:
Remaining flits: 143987 144086 144088 144089 144092 144100 144101 144104 (8 flits)
Measured flits: 143987 144086 144088 144089 144092 144100 144101 144104 (8 flits)
Class 0:
Remaining flits: 143987 144086 144088 144089 144092 144100 144101 144104 (8 flits)
Measured flits: 143987 144086 144088 144089 144092 144100 144101 144104 (8 flits)
Class 0:
Remaining flits: 143987 144086 144088 144089 144092 144100 144101 144104 (8 flits)
Measured flits: 143987 144086 144088 144089 144092 144100 144101 144104 (8 flits)
Class 0:
Remaining flits: 143987 144086 144088 144089 144092 144100 144101 144104 (8 flits)
Measured flits: 143987 144086 144088 144089 144092 144100 144101 144104 (8 flits)
Class 0:
Remaining flits: 143987 144086 144088 144089 144092 144100 144101 144104 (8 flits)
Measured flits: 143987 144086 144088 144089 144092 144100 144101 144104 (8 flits)
Class 0:
Remaining flits: 143987 144086 144088 144089 144092 144100 144101 144104 (8 flits)
Measured flits: 143987 144086 144088 144089 144092 144100 144101 144104 (8 flits)
Class 0:
Remaining flits: 143987 144086 144088 144089 144092 144100 144101 144104 (8 flits)
Measured flits: 143987 144086 144088 144089 144092 144100 144101 144104 (8 flits)
Class 0:
Remaining flits: 143987 144086 144088 144089 144092 144100 144101 144104 (8 flits)
Measured flits: 143987 144086 144088 144089 144092 144100 144101 144104 (8 flits)
Class 0:
Remaining flits: 143987 144086 144088 144089 144092 144100 144101 144104 (8 flits)
Measured flits: 143987 144086 144088 144089 144092 144100 144101 144104 (8 flits)
Class 0:
Remaining flits: 143987 144086 144088 144089 144092 144100 144101 144104 (8 flits)
Measured flits: 143987 144086 144088 144089 144092 144100 144101 144104 (8 flits)
Class 0:
Remaining flits: 143987 144086 144088 144089 144092 144100 144101 144104 (8 flits)
Measured flits: 143987 144086 144088 144089 144092 144100 144101 144104 (8 flits)
Class 0:
Remaining flits: 143987 144086 144088 144089 144092 144100 144101 144104 (8 flits)
Measured flits: 143987 144086 144088 144089 144092 144100 144101 144104 (8 flits)
Class 0:
Remaining flits: 143987 144086 144088 144089 144092 144100 144101 144104 (8 flits)
Measured flits: 143987 144086 144088 144089 144092 144100 144101 144104 (8 flits)
Class 0:
Remaining flits: 143987 144086 144088 144089 144092 144100 144101 144104 (8 flits)
Measured flits: 143987 144086 144088 144089 144092 144100 144101 144104 (8 flits)
Class 0:
Remaining flits: 143987 144086 144088 144089 144092 144100 144101 144104 (8 flits)
Measured flits: 143987 144086 144088 144089 144092 144100 144101 144104 (8 flits)
Class 0:
Remaining flits: 143987 144086 144088 144089 144092 144100 144101 144104 (8 flits)
Measured flits: 143987 144086 144088 144089 144092 144100 144101 144104 (8 flits)
Class 0:
Remaining flits: 143987 144086 144088 144089 144092 144100 144101 144104 (8 flits)
Measured flits: 143987 144086 144088 144089 144092 144100 144101 144104 (8 flits)
Class 0:
Remaining flits: 143987 144086 144088 144089 144092 144100 144101 144104 (8 flits)
Measured flits: 143987 144086 144088 144089 144092 144100 144101 144104 (8 flits)
Class 0:
Remaining flits: 143987 144086 144088 144089 144092 144100 144101 144104 (8 flits)
Measured flits: 143987 144086 144088 144089 144092 144100 144101 144104 (8 flits)
Class 0:
Remaining flits: 143987 144086 144088 144089 144092 144100 144101 144104 (8 flits)
Measured flits: 143987 144086 144088 144089 144092 144100 144101 144104 (8 flits)
Class 0:
Remaining flits: 143987 144086 144088 144089 144092 144100 144101 144104 (8 flits)
Measured flits: 143987 144086 144088 144089 144092 144100 144101 144104 (8 flits)
Class 0:
Remaining flits: 143987 144086 144088 144089 144092 144100 144101 144104 (8 flits)
Measured flits: 143987 144086 144088 144089 144092 144100 144101 144104 (8 flits)
Class 0:
Remaining flits: 143987 144086 144088 144089 144092 144100 144101 144104 (8 flits)
Measured flits: 143987 144086 144088 144089 144092 144100 144101 144104 (8 flits)
Class 0:
Remaining flits: 143987 144086 144088 144089 144092 144100 144101 144104 (8 flits)
Measured flits: 143987 144086 144088 144089 144092 144100 144101 144104 (8 flits)
Class 0:
Remaining flits: 143987 144086 144088 144089 144092 144100 144101 144104 (8 flits)
Measured flits: 143987 144086 144088 144089 144092 144100 144101 144104 (8 flits)
Class 0:
Remaining flits: 143987 144086 144088 144089 144092 144100 144101 144104 (8 flits)
Measured flits: 143987 144086 144088 144089 144092 144100 144101 144104 (8 flits)
Class 0:
Remaining flits: 143987 144086 144088 144089 144092 144100 144101 144104 (8 flits)
Measured flits: 143987 144086 144088 144089 144092 144100 144101 144104 (8 flits)
Class 0:
Remaining flits: 143987 144086 144088 144089 144092 144100 144101 144104 (8 flits)
Measured flits: 143987 144086 144088 144089 144092 144100 144101 144104 (8 flits)
Class 0:
Remaining flits: 143987 144086 144088 144089 144092 144100 144101 144104 (8 flits)
Measured flits: 143987 144086 144088 144089 144092 144100 144101 144104 (8 flits)
Class 0:
Remaining flits: 143987 144086 144088 144089 144092 144100 144101 144104 (8 flits)
Measured flits: 143987 144086 144088 144089 144092 144100 144101 144104 (8 flits)
Class 0:
Remaining flits: 143987 144086 144088 144089 144092 144100 144101 144104 (8 flits)
Measured flits: 143987 144086 144088 144089 144092 144100 144101 144104 (8 flits)
Class 0:
Remaining flits: 143987 144086 144088 144089 144092 144100 144101 144104 (8 flits)
Measured flits: 143987 144086 144088 144089 144092 144100 144101 144104 (8 flits)
Class 0:
Remaining flits: 143987 144086 144088 144089 144092 144100 144101 144104 (8 flits)
Measured flits: 143987 144086 144088 144089 144092 144100 144101 144104 (8 flits)
Class 0:
Remaining flits: 143987 144086 144088 144089 144092 144100 144101 144104 (8 flits)
Measured flits: 143987 144086 144088 144089 144092 144100 144101 144104 (8 flits)
Class 0:
Remaining flits: 143987 144086 144088 144089 144092 144100 144101 144104 (8 flits)
Measured flits: 143987 144086 144088 144089 144092 144100 144101 144104 (8 flits)
Class 0:
Remaining flits: 143987 144086 144088 144089 144092 144100 144101 144104 (8 flits)
Measured flits: 143987 144086 144088 144089 144092 144100 144101 144104 (8 flits)
Class 0:
Remaining flits: 143987 144086 144088 144089 144092 144100 144101 144104 (8 flits)
Measured flits: 143987 144086 144088 144089 144092 144100 144101 144104 (8 flits)
Class 0:
Remaining flits: 143987 144086 144088 144089 144092 144100 144101 144104 (8 flits)
Measured flits: 143987 144086 144088 144089 144092 144100 144101 144104 (8 flits)
Class 0:
Remaining flits: 143987 144086 144088 144089 144092 144100 144101 144104 (8 flits)
Measured flits: 143987 144086 144088 144089 144092 144100 144101 144104 (8 flits)
Class 0:
Remaining flits: 143987 144086 144088 144089 144092 144100 144101 144104 (8 flits)
Measured flits: 143987 144086 144088 144089 144092 144100 144101 144104 (8 flits)
Class 0:
Remaining flits: 143987 144086 144088 144089 144092 144100 144101 144104 (8 flits)
Measured flits: 143987 144086 144088 144089 144092 144100 144101 144104 (8 flits)
Class 0:
Remaining flits: 143987 144086 144088 144089 144092 144100 144101 144104 (8 flits)
Measured flits: 143987 144086 144088 144089 144092 144100 144101 144104 (8 flits)
Time taken is 61000 cycles
====== Traffic class 0 ======

Total number of flits generated = 144108, changed lanes = 0
Overall minimum packet latency = 24 (1 samples)
Overall average packet latency = 41.2254 (1 samples)
Overall maximum packet latency = 224 (1 samples)
Overall minimum network latency = 25 (1 samples)
Overall average network latency = 40.8291 (1 samples)
Overall maximum network latency = 225 (1 samples)
Overall minimum flit latency = 22 (1 samples)
Overall average flit latency = 34.894 (1 samples)
Overall maximum flit latency = 222 (1 samples)
Overall minimum fragmentation = 0 (1 samples)
Overall average fragmentation = 5.06921 (1 samples)
Overall maximum fragmentation = 198 (1 samples)
Overall minimum injected packet rate = 0.0482333 (1 samples)
Overall average injected packet rate = 0.0501896 (1 samples)
Overall maximum injected packet rate = 0.0535333 (1 samples)
Overall minimum accepted packet rate = 0.0481333 (1 samples)
Overall average accepted packet rate = 0.0501708 (1 samples)
Overall maximum accepted packet rate = 0.0534667 (1 samples)
Overall minimum injected flit rate = 0.144633 (1 samples)
Overall average injected flit rate = 0.150558 (1 samples)
Overall maximum injected flit rate = 0.1606 (1 samples)
Overall minimum accepted flit rate = 0.1444 (1 samples)
Overall average accepted flit rate = 0.150508 (1 samples)
Overall maximum accepted flit rate = 0.160467 (1 samples)
Overall average injected packet size = 2.99979 (1 samples)
Overall average accepted packet size = 2.99992 (1 samples)
Overall average hops = 3.9983 (1 samples)
Overall throughput of the network (flits/cycle) = 4.80333
Overall throughput of the network (packets/cycle) = 1.601
Total run time 439.498
