make: Nothing to be done for 'all'.
Master: Running timer....
Master: Running SRC....
BEGIN Configuration File: ./examples/bitrev
// Topology

topology = torus;
k = 2;
n = 2;

// Routing
routing_function = dim_order;

// Flow control
num_vcs     = 4;
vc_buf_size = 4;
wait_for_tail_credit = 0;

// Router architecture
vc_allocator = islip;
sw_allocator = islip;
alloc_iters  = 1;

credit_delay   = 1;
routing_delay  = 1;
vc_alloc_delay = 1;
sw_alloc_delay = 1;

input_speedup     = 1;
output_speedup    = 1;
internal_speedup  = 1.0;

vc_busy_when_full = 0;

// Traffic
traffic = uniform;
packet_size = 1;

// Simulation
sim_type = throughput;

injection_rate = 0.05;

END Configuration File: ./examples/bitrev
===== Time: 1000 =====
Class 0:
Minimum packet latency = 7
Average packet latency = 15.4024
Maximum packet latency = 101
Minimum network latency = 8
Average network latency = 16.4024
Maximum network latency = 102
Slowest packet = 16
Minimum flit latency = 8
Average flit latency = 16.4024
Maximum flit latency = 102
Slowest flit = 16
Minimum fragmentation = 0
Average fragmentation = 0
Maximum fragmentation = 0
Minimum injected packet rate = 0.038 (at node 2)
Average injected packet rate = 0.04325
Maximum injected packet rate = 0.048 (at node 1)
Minimum accepted packet rate = 0.037 (at node 2)
Average accepted packet rate = 0.04225
Maximum accepted packet rate = 0.045 (at node 1)
Minimum injected flit rate = 0.038 (at node 2)
Average injected flit rate = 0.04325
Maximum injected flit rate = 0.048 (at node 1)
Minimum accepted flit rate = 0.037 (at node 2)
Average accepted flit rate = 0.04225
Maximum accepted flit rate = 0.045 (at node 1)
Total number of injected packets = 173
Total number of injected flits = 173
Average injected packet length = 1
Total number of accepted packets = 169
Total number of accepted flits = 169
Average accepted packet length = 1
Total in-flight flits = 4 (0 measured)
===== Time: 2000 =====
Class 0:
Minimum packet latency = 7
Average packet latency = 15.2513
Maximum packet latency = 101
Minimum network latency = 8
Average network latency = 16.2513
Maximum network latency = 102
Slowest packet = 16
Minimum flit latency = 8
Average flit latency = 16.2513
Maximum flit latency = 102
Slowest flit = 16
Minimum fragmentation = 0
Average fragmentation = 0
Maximum fragmentation = 0
Minimum injected packet rate = 0.044 (at node 0)
Average injected packet rate = 0.049625
Maximum injected packet rate = 0.0555 (at node 1)
Minimum accepted packet rate = 0.044 (at node 2)
Average accepted packet rate = 0.04925
Maximum accepted packet rate = 0.0525 (at node 0)
Minimum injected flit rate = 0.044 (at node 0)
Average injected flit rate = 0.049625
Maximum injected flit rate = 0.0555 (at node 1)
Minimum accepted flit rate = 0.044 (at node 2)
Average accepted flit rate = 0.04925
Maximum accepted flit rate = 0.0525 (at node 0)
Total number of injected packets = 397
Total number of injected flits = 397
Average injected packet length = 1
Total number of accepted packets = 394
Total number of accepted flits = 394
Average accepted packet length = 1
Total in-flight flits = 3 (0 measured)
===== Time: 3000 =====
Class 0:
Minimum packet latency = 7
Average packet latency = 15.6409
Maximum packet latency = 181
Minimum network latency = 8
Average network latency = 16.6409
Maximum network latency = 182
Slowest packet = 392
Minimum flit latency = 8
Average flit latency = 16.6409
Maximum flit latency = 182
Slowest flit = 392
Minimum fragmentation = 0
Average fragmentation = 0
Maximum fragmentation = 0
Minimum injected packet rate = 0.04 (at node 2)
Average injected packet rate = 0.045
Maximum injected packet rate = 0.049 (at node 0)
Minimum accepted packet rate = 0.04 (at node 3)
Average accepted packet rate = 0.04525
Maximum accepted packet rate = 0.052 (at node 1)
Minimum injected flit rate = 0.04 (at node 2)
Average injected flit rate = 0.045
Maximum injected flit rate = 0.049 (at node 0)
Minimum accepted flit rate = 0.04 (at node 3)
Average accepted flit rate = 0.04525
Maximum accepted flit rate = 0.052 (at node 1)
Total number of injected packets = 180
Total number of injected flits = 180
Average injected packet length = 1
Total number of accepted packets = 181
Total number of accepted flits = 181
Average accepted packet length = 1
Total in-flight flits = 2 (0 measured)
===== Time: 4000 =====
Class 0:
Minimum packet latency = 7
Average packet latency = 15.9606
Maximum packet latency = 140
Minimum network latency = 8
Average network latency = 16.9606
Maximum network latency = 141
Slowest packet = 725
Minimum flit latency = 8
Average flit latency = 16.9854
Maximum flit latency = 141
Slowest flit = 725
Minimum fragmentation = 0
Average fragmentation = 0
Maximum fragmentation = 0
Minimum injected packet rate = 0.038 (at node 1)
Average injected packet rate = 0.05125
Maximum injected packet rate = 0.057 (at node 3)
Minimum accepted packet rate = 0.05 (at node 1)
Average accepted packet rate = 0.05125
Maximum accepted packet rate = 0.053 (at node 0)
Minimum injected flit rate = 0.038 (at node 1)
Average injected flit rate = 0.05125
Maximum injected flit rate = 0.057 (at node 3)
Minimum accepted flit rate = 0.05 (at node 1)
Average accepted flit rate = 0.05125
Maximum accepted flit rate = 0.053 (at node 0)
Total number of injected packets = 205
Total number of injected flits = 205
Average injected packet length = 1
Total number of accepted packets = 205
Total number of accepted flits = 205
Average accepted packet length = 1
Total in-flight flits = 2 (2 measured)
===== Time: 5000 =====
Class 0:
Minimum packet latency = 7
Average packet latency = 15.7158
Maximum packet latency = 140
Minimum network latency = 8
Average network latency = 16.7158
Maximum network latency = 141
Slowest packet = 725
Minimum flit latency = 8
Average flit latency = 16.7304
Maximum flit latency = 141
Slowest flit = 725
Minimum fragmentation = 0
Average fragmentation = 0
Maximum fragmentation = 0
Minimum injected packet rate = 0.0375 (at node 1)
Average injected packet rate = 0.047875
Maximum injected packet rate = 0.0535 (at node 2)
Minimum accepted packet rate = 0.045 (at node 3)
Average accepted packet rate = 0.04775
Maximum accepted packet rate = 0.0505 (at node 0)
Minimum injected flit rate = 0.0375 (at node 1)
Average injected flit rate = 0.047875
Maximum injected flit rate = 0.0535 (at node 2)
Minimum accepted flit rate = 0.045 (at node 3)
Average accepted flit rate = 0.04775
Maximum accepted flit rate = 0.0505 (at node 0)
Total number of injected packets = 383
Total number of injected flits = 383
Average injected packet length = 1
Total number of accepted packets = 382
Total number of accepted flits = 382
Average accepted packet length = 1
Total in-flight flits = 3 (3 measured)
===== Time: 6000 =====
Class 0:
Minimum packet latency = 7
Average packet latency = 15.3289
Maximum packet latency = 140
Minimum network latency = 8
Average network latency = 16.3289
Maximum network latency = 141
Slowest packet = 725
Minimum flit latency = 8
Average flit latency = 16.3394
Maximum flit latency = 141
Slowest flit = 725
Minimum fragmentation = 0
Average fragmentation = 0
Maximum fragmentation = 0
Minimum injected packet rate = 0.045 (at node 1)
Average injected packet rate = 0.0505833
Maximum injected packet rate = 0.0543333 (at node 0)
Minimum accepted packet rate = 0.0473333 (at node 1)
Average accepted packet rate = 0.0503333
Maximum accepted packet rate = 0.054 (at node 0)
Minimum injected flit rate = 0.045 (at node 1)
Average injected flit rate = 0.0505833
Maximum injected flit rate = 0.0543333 (at node 0)
Minimum accepted flit rate = 0.0473333 (at node 1)
Average accepted flit rate = 0.0503333
Maximum accepted flit rate = 0.054 (at node 0)
Total number of injected packets = 607
Total number of injected flits = 607
Average injected packet length = 1
Total number of accepted packets = 604
Total number of accepted flits = 604
Average accepted packet length = 1
Total in-flight flits = 5 (5 measured)
===== Time: 7000 =====
Class 0:
Minimum packet latency = 7
Average packet latency = 15.2179
Maximum packet latency = 140
Minimum network latency = 8
Average network latency = 16.2179
Maximum network latency = 141
Slowest packet = 725
Minimum flit latency = 8
Average flit latency = 16.2261
Maximum flit latency = 141
Slowest flit = 725
Minimum fragmentation = 0
Average fragmentation = 0
Maximum fragmentation = 0
Minimum injected packet rate = 0.04275 (at node 1)
Average injected packet rate = 0.05025
Maximum injected packet rate = 0.0555 (at node 0)
Minimum accepted packet rate = 0.04875 (at node 1)
Average accepted packet rate = 0.0503125
Maximum accepted packet rate = 0.052 (at node 0)
Minimum injected flit rate = 0.04275 (at node 1)
Average injected flit rate = 0.05025
Maximum injected flit rate = 0.0555 (at node 0)
Minimum accepted flit rate = 0.04875 (at node 1)
Average accepted flit rate = 0.0503125
Maximum accepted flit rate = 0.052 (at node 0)
Total number of injected packets = 804
Total number of injected flits = 804
Average injected packet length = 1
Total number of accepted packets = 805
Total number of accepted flits = 805
Average accepted packet length = 1
Total in-flight flits = 1 (1 measured)
===== Time: 8000 =====
Class 0:
Minimum packet latency = 7
Average packet latency = 15.1229
Maximum packet latency = 140
Minimum network latency = 8
Average network latency = 16.1229
Maximum network latency = 141
Slowest packet = 725
Minimum flit latency = 8
Average flit latency = 16.1296
Maximum flit latency = 141
Slowest flit = 725
Minimum fragmentation = 0
Average fragmentation = 0
Maximum fragmentation = 0
Minimum injected packet rate = 0.0462 (at node 1)
Average injected packet rate = 0.04975
Maximum injected packet rate = 0.0522 (at node 0)
Minimum accepted packet rate = 0.0488 (at node 2)
Average accepted packet rate = 0.04975
Maximum accepted packet rate = 0.0516 (at node 1)
Minimum injected flit rate = 0.0462 (at node 1)
Average injected flit rate = 0.04975
Maximum injected flit rate = 0.0522 (at node 0)
Minimum accepted flit rate = 0.0488 (at node 2)
Average accepted flit rate = 0.04975
Maximum accepted flit rate = 0.0516 (at node 1)
Total number of injected packets = 995
Total number of injected flits = 995
Average injected packet length = 1
Total number of accepted packets = 995
Total number of accepted flits = 995
Average accepted packet length = 1
Total in-flight flits = 2 (2 measured)
===== Time: 9000 =====
Class 0:
Minimum packet latency = 7
Average packet latency = 15.0753
Maximum packet latency = 140
Minimum network latency = 8
Average network latency = 16.0753
Maximum network latency = 141
Slowest packet = 725
Minimum flit latency = 8
Average flit latency = 16.0811
Maximum flit latency = 141
Slowest flit = 725
Minimum fragmentation = 0
Average fragmentation = 0
Maximum fragmentation = 0
Minimum injected packet rate = 0.047 (at node 1)
Average injected packet rate = 0.0494583
Maximum injected packet rate = 0.0513333 (at node 2)
Minimum accepted packet rate = 0.0478333 (at node 3)
Average accepted packet rate = 0.0493333
Maximum accepted packet rate = 0.0501667 (at node 2)
Minimum injected flit rate = 0.047 (at node 1)
Average injected flit rate = 0.0494583
Maximum injected flit rate = 0.0513333 (at node 2)
Minimum accepted flit rate = 0.0478333 (at node 3)
Average accepted flit rate = 0.0493333
Maximum accepted flit rate = 0.0501667 (at node 2)
Total number of injected packets = 1187
Total number of injected flits = 1187
Average injected packet length = 1
Total number of accepted packets = 1184
Total number of accepted flits = 1184
Average accepted packet length = 1
Total in-flight flits = 5 (5 measured)
Draining remaining packets ...
Class 0:
Remaining flits: 1763 (1 flits)
Measured flits: 1763 (1 flits)
Class 0:
Remaining flits: (0 flits)
Measured flits: (0 flits)
Class 0:
Remaining flits: (0 flits)
Measured flits: (0 flits)
Class 0:
Remaining flits: (0 flits)
Measured flits: (0 flits)
Class 0:
Remaining flits: (0 flits)
Measured flits: (0 flits)
Class 0:
Remaining flits: (0 flits)
Measured flits: (0 flits)
Class 0:
Remaining flits: (0 flits)
Measured flits: (0 flits)
Class 0:
Remaining flits: (0 flits)
Measured flits: (0 flits)
Class 0:
Remaining flits: (0 flits)
Measured flits: (0 flits)
Class 0:
Remaining flits: (0 flits)
Measured flits: (0 flits)
Class 0:
Remaining flits: (0 flits)
Measured flits: (0 flits)
Class 0:
Remaining flits: (0 flits)
Measured flits: (0 flits)
Class 0:
Remaining flits: (0 flits)
Measured flits: (0 flits)
Class 0:
Remaining flits: (0 flits)
Measured flits: (0 flits)
Class 0:
Remaining flits: (0 flits)
Measured flits: (0 flits)
Class 0:
Remaining flits: (0 flits)
Measured flits: (0 flits)
Class 0:
Remaining flits: (0 flits)
Measured flits: (0 flits)
Class 0:
Remaining flits: (0 flits)
Measured flits: (0 flits)
Class 0:
Remaining flits: (0 flits)
Measured flits: (0 flits)
Class 0:
Remaining flits: (0 flits)
Measured flits: (0 flits)
Class 0:
Remaining flits: (0 flits)
Measured flits: (0 flits)
Class 0:
Remaining flits: (0 flits)
Measured flits: (0 flits)
Class 0:
Remaining flits: (0 flits)
Measured flits: (0 flits)
Class 0:
Remaining flits: (0 flits)
Measured flits: (0 flits)
Class 0:
Remaining flits: (0 flits)
Measured flits: (0 flits)
Class 0:
Remaining flits: (0 flits)
Measured flits: (0 flits)
Class 0:
Remaining flits: (0 flits)
Measured flits: (0 flits)
Class 0:
Remaining flits: (0 flits)
Measured flits: (0 flits)
Class 0:
Remaining flits: (0 flits)
Measured flits: (0 flits)
Class 0:
Remaining flits: (0 flits)
Measured flits: (0 flits)
Class 0:
Remaining flits: (0 flits)
Measured flits: (0 flits)
Class 0:
Remaining flits: (0 flits)
Measured flits: (0 flits)
Class 0:
Remaining flits: (0 flits)
Measured flits: (0 flits)
Class 0:
Remaining flits: (0 flits)
Measured flits: (0 flits)
Class 0:
Remaining flits: (0 flits)
Measured flits: (0 flits)
Class 0:
Remaining flits: (0 flits)
Measured flits: (0 flits)
Class 0:
Remaining flits: (0 flits)
Measured flits: (0 flits)
Class 0:
Remaining flits: (0 flits)
Measured flits: (0 flits)
Class 0:
Remaining flits: (0 flits)
Measured flits: (0 flits)
Class 0:
Remaining flits: (0 flits)
Measured flits: (0 flits)
Class 0:
Remaining flits: (0 flits)
Measured flits: (0 flits)
Class 0:
Remaining flits: (0 flits)
Measured flits: (0 flits)
Class 0:
Remaining flits: (0 flits)
Measured flits: (0 flits)
Class 0:
Remaining flits: (0 flits)
Measured flits: (0 flits)
Class 0:
Remaining flits: (0 flits)
Measured flits: (0 flits)
Class 0:
Remaining flits: (0 flits)
Measured flits: (0 flits)
Class 0:
Remaining flits: (0 flits)
Measured flits: (0 flits)
Class 0:
Remaining flits: (0 flits)
Measured flits: (0 flits)
Class 0:
Remaining flits: (0 flits)
Measured flits: (0 flits)
Class 0:
Remaining flits: (0 flits)
Measured flits: (0 flits)
Class 0:
Remaining flits: (0 flits)
Measured flits: (0 flits)
Class 0:
Remaining flits: (0 flits)
Measured flits: (0 flits)
Class 0:
Remaining flits: (0 flits)
Measured flits: (0 flits)
Class 0:
Remaining flits: (0 flits)
Measured flits: (0 flits)
Class 0:
Remaining flits: (0 flits)
Measured flits: (0 flits)
Class 0:
Remaining flits: (0 flits)
Measured flits: (0 flits)
Class 0:
Remaining flits: (0 flits)
Measured flits: (0 flits)
Class 0:
Remaining flits: (0 flits)
Measured flits: (0 flits)
Class 0:
Remaining flits: (0 flits)
Measured flits: (0 flits)
Class 0:
Remaining flits: (0 flits)
Measured flits: (0 flits)
Class 0:
Remaining flits: (0 flits)
Measured flits: (0 flits)
Class 0:
Remaining flits: (0 flits)
Measured flits: (0 flits)
Class 0:
Remaining flits: (0 flits)
Measured flits: (0 flits)
Class 0:
Remaining flits: (0 flits)
Measured flits: (0 flits)
Class 0:
Remaining flits: (0 flits)
Measured flits: (0 flits)
Class 0:
Remaining flits: (0 flits)
Measured flits: (0 flits)
Class 0:
Remaining flits: (0 flits)
Measured flits: (0 flits)
Class 0:
Remaining flits: (0 flits)
Measured flits: (0 flits)
Class 0:
Remaining flits: (0 flits)
Measured flits: (0 flits)
Class 0:
Remaining flits: (0 flits)
Measured flits: (0 flits)
Class 0:
Remaining flits: (0 flits)
Measured flits: (0 flits)
Class 0:
Remaining flits: (0 flits)
Measured flits: (0 flits)
Class 0:
Remaining flits: (0 flits)
Measured flits: (0 flits)
Class 0:
Remaining flits: (0 flits)
Measured flits: (0 flits)
Class 0:
Remaining flits: (0 flits)
Measured flits: (0 flits)
Class 0:
Remaining flits: (0 flits)
Measured flits: (0 flits)
Class 0:
Remaining flits: (0 flits)
Measured flits: (0 flits)
Class 0:
Remaining flits: (0 flits)
Measured flits: (0 flits)
Class 0:
Remaining flits: (0 flits)
Measured flits: (0 flits)
Class 0:
Remaining flits: (0 flits)
Measured flits: (0 flits)
Class 0:
Remaining flits: (0 flits)
Measured flits: (0 flits)
Class 0:
Remaining flits: (0 flits)
Measured flits: (0 flits)
Class 0:
Remaining flits: (0 flits)
Measured flits: (0 flits)
Class 0:
Remaining flits: (0 flits)
Measured flits: (0 flits)
Class 0:
Remaining flits: (0 flits)
Measured flits: (0 flits)
Class 0:
Remaining flits: (0 flits)
Measured flits: (0 flits)
Class 0:
Remaining flits: (0 flits)
Measured flits: (0 flits)
Class 0:
Remaining flits: (0 flits)
Measured flits: (0 flits)
Class 0:
Remaining flits: (0 flits)
Measured flits: (0 flits)
Class 0:
Remaining flits: (0 flits)
Measured flits: (0 flits)
Class 0:
Remaining flits: (0 flits)
Measured flits: (0 flits)
Class 0:
Remaining flits: (0 flits)
Measured flits: (0 flits)
Class 0:
Remaining flits: (0 flits)
Measured flits: (0 flits)
Class 0:
Remaining flits: (0 flits)
Measured flits: (0 flits)
Class 0:
Remaining flits: (0 flits)
Measured flits: (0 flits)
Class 0:
Remaining flits: (0 flits)
Measured flits: (0 flits)
Class 0:
Remaining flits: (0 flits)
Measured flits: (0 flits)
Class 0:
Remaining flits: (0 flits)
Measured flits: (0 flits)
Class 0:
Remaining flits: (0 flits)
Measured flits: (0 flits)
Class 0:
Remaining flits: (0 flits)
Measured flits: (0 flits)
Class 0:
Remaining flits: (0 flits)
Measured flits: (0 flits)
Time taken is 10000 cycles
====== Traffic class 0 ======

Total number of flits generated = 1764, changed lanes = 1574
Overall minimum packet latency = 7 (1 samples)
Overall average packet latency = 15.0783 (1 samples)
Overall maximum packet latency = 140 (1 samples)
Overall minimum network latency = 8 (1 samples)
Overall average network latency = 16.0783 (1 samples)
Overall maximum network latency = 141 (1 samples)
Overall minimum flit latency = 8 (1 samples)
Overall average flit latency = 16.0841 (1 samples)
Overall maximum flit latency = 141 (1 samples)
Overall minimum fragmentation = 0 (1 samples)
Overall average fragmentation = 0 (1 samples)
Overall maximum fragmentation = 0 (1 samples)
Overall minimum injected packet rate = 0.047 (1 samples)
Overall average injected packet rate = 0.0494583 (1 samples)
Overall maximum injected packet rate = 0.0513333 (1 samples)
Overall minimum accepted packet rate = 0.0478333 (1 samples)
Overall average accepted packet rate = 0.0493333 (1 samples)
Overall maximum accepted packet rate = 0.0501667 (1 samples)
Overall minimum injected flit rate = 0.047 (1 samples)
Overall average injected flit rate = 0.0494583 (1 samples)
Overall maximum injected flit rate = 0.0513333 (1 samples)
Overall minimum accepted flit rate = 0.0478333 (1 samples)
Overall average accepted flit rate = 0.0493333 (1 samples)
Overall maximum accepted flit rate = 0.0501667 (1 samples)
Overall average injected packet size = 1 (1 samples)
Overall average accepted packet size = 1 (1 samples)
Overall average hops = 1.96377 (1 samples)
Overall throughput of the network (flits/cycle) = 0.294
Overall throughput of the network (packets/cycle) = 0.294
Total run time 2.98129
