make: Nothing to be done for 'all'.
Master: Running timer....
Master: Running SRC....
BEGIN Configuration File: ./examples/bitrev
// Topology

topology = torus;
k = 2;
n = 2;

// Routing
routing_function = dim_order;

// Flow control
num_vcs     = 4;
vc_buf_size = 4;
wait_for_tail_credit = 0;

// Router architecture
vc_allocator = islip;
sw_allocator = islip;
alloc_iters  = 1;

credit_delay   = 1;
routing_delay  = 1;
vc_alloc_delay = 1;
sw_alloc_delay = 1;

input_speedup     = 1;
output_speedup    = 1;
internal_speedup  = 1.0;

vc_busy_when_full = 0;

// Traffic
traffic = uniform;
packet_size = 1;

// Simulation
sim_type = throughput;

injection_rate = 0.05;

END Configuration File: ./examples/bitrev
===== Time: 1000 =====
Class 0:
Minimum packet latency = 7
Average packet latency = 18.1557
Maximum packet latency = 102
Minimum network latency = 8
Average network latency = 19.1557
Maximum network latency = 103
Slowest packet = 16
Minimum flit latency = 8
Average flit latency = 19.1557
Maximum flit latency = 103
Slowest flit = 16
Minimum fragmentation = 0
Average fragmentation = 0
Maximum fragmentation = 0
Minimum injected packet rate = 0.038 (at node 2)
Average injected packet rate = 0.04325
Maximum injected packet rate = 0.048 (at node 1)
Minimum accepted packet rate = 0.037 (at node 2)
Average accepted packet rate = 0.04175
Maximum accepted packet rate = 0.046 (at node 3)
Minimum injected flit rate = 0.038 (at node 2)
Average injected flit rate = 0.04325
Maximum injected flit rate = 0.048 (at node 1)
Minimum accepted flit rate = 0.037 (at node 2)
Average accepted flit rate = 0.04175
Maximum accepted flit rate = 0.046 (at node 3)
Total number of injected packets = 173
Total number of injected flits = 173
Average injected packet length = 1
Total number of accepted packets = 167
Total number of accepted flits = 167
Average accepted packet length = 1
Total in-flight flits = 6 (0 measured)
===== Time: 2000 =====
Class 0:
Minimum packet latency = 7
Average packet latency = 18.8633
Maximum packet latency = 102
Minimum network latency = 8
Average network latency = 19.8633
Maximum network latency = 103
Slowest packet = 16
Minimum flit latency = 8
Average flit latency = 19.8633
Maximum flit latency = 103
Slowest flit = 16
Minimum fragmentation = 0
Average fragmentation = 0
Maximum fragmentation = 0
Minimum injected packet rate = 0.044 (at node 0)
Average injected packet rate = 0.049625
Maximum injected packet rate = 0.0555 (at node 1)
Minimum accepted packet rate = 0.044 (at node 2)
Average accepted packet rate = 0.049375
Maximum accepted packet rate = 0.0525 (at node 3)
Minimum injected flit rate = 0.044 (at node 0)
Average injected flit rate = 0.049625
Maximum injected flit rate = 0.0555 (at node 1)
Minimum accepted flit rate = 0.044 (at node 2)
Average accepted flit rate = 0.049375
Maximum accepted flit rate = 0.0525 (at node 3)
Total number of injected packets = 397
Total number of injected flits = 397
Average injected packet length = 1
Total number of accepted packets = 395
Total number of accepted flits = 395
Average accepted packet length = 1
Total in-flight flits = 2 (0 measured)
===== Time: 3000 =====
Class 0:
Minimum packet latency = 7
Average packet latency = 17.162
Maximum packet latency = 38
Minimum network latency = 8
Average network latency = 18.162
Maximum network latency = 39
Slowest packet = 415
Minimum flit latency = 8
Average flit latency = 18.162
Maximum flit latency = 39
Slowest flit = 415
Minimum fragmentation = 0
Average fragmentation = 0
Maximum fragmentation = 0
Minimum injected packet rate = 0.04 (at node 2)
Average injected packet rate = 0.045
Maximum injected packet rate = 0.049 (at node 0)
Minimum accepted packet rate = 0.042 (at node 3)
Average accepted packet rate = 0.04475
Maximum accepted packet rate = 0.049 (at node 1)
Minimum injected flit rate = 0.04 (at node 2)
Average injected flit rate = 0.045
Maximum injected flit rate = 0.049 (at node 0)
Minimum accepted flit rate = 0.042 (at node 3)
Average accepted flit rate = 0.04475
Maximum accepted flit rate = 0.049 (at node 1)
Total number of injected packets = 180
Total number of injected flits = 180
Average injected packet length = 1
Total number of accepted packets = 179
Total number of accepted flits = 179
Average accepted packet length = 1
Total in-flight flits = 3 (0 measured)
===== Time: 4000 =====
Class 0:
Minimum packet latency = 7
Average packet latency = 17.6337
Maximum packet latency = 38
Minimum network latency = 8
Average network latency = 18.6337
Maximum network latency = 39
Slowest packet = 606
Minimum flit latency = 8
Average flit latency = 18.7171
Maximum flit latency = 39
Slowest flit = 606
Minimum fragmentation = 0
Average fragmentation = 0
Maximum fragmentation = 0
Minimum injected packet rate = 0.038 (at node 1)
Average injected packet rate = 0.05125
Maximum injected packet rate = 0.057 (at node 3)
Minimum accepted packet rate = 0.044 (at node 0)
Average accepted packet rate = 0.05125
Maximum accepted packet rate = 0.056 (at node 2)
Minimum injected flit rate = 0.038 (at node 1)
Average injected flit rate = 0.05125
Maximum injected flit rate = 0.057 (at node 3)
Minimum accepted flit rate = 0.044 (at node 0)
Average accepted flit rate = 0.05125
Maximum accepted flit rate = 0.056 (at node 2)
Total number of injected packets = 205
Total number of injected flits = 205
Average injected packet length = 1
Total number of accepted packets = 205
Total number of accepted flits = 205
Average accepted packet length = 1
Total in-flight flits = 3 (3 measured)
===== Time: 5000 =====
Class 0:
Minimum packet latency = 7
Average packet latency = 17.6921
Maximum packet latency = 38
Minimum network latency = 8
Average network latency = 18.6921
Maximum network latency = 39
Slowest packet = 870
Minimum flit latency = 8
Average flit latency = 18.7363
Maximum flit latency = 39
Slowest flit = 606
Minimum fragmentation = 0
Average fragmentation = 0
Maximum fragmentation = 0
Minimum injected packet rate = 0.0375 (at node 1)
Average injected packet rate = 0.047875
Maximum injected packet rate = 0.0535 (at node 2)
Minimum accepted packet rate = 0.0455 (at node 0)
Average accepted packet rate = 0.047875
Maximum accepted packet rate = 0.052 (at node 2)
Minimum injected flit rate = 0.0375 (at node 1)
Average injected flit rate = 0.047875
Maximum injected flit rate = 0.0535 (at node 2)
Minimum accepted flit rate = 0.0455 (at node 0)
Average accepted flit rate = 0.047875
Maximum accepted flit rate = 0.052 (at node 2)
Total number of injected packets = 383
Total number of injected flits = 383
Average injected packet length = 1
Total number of accepted packets = 383
Total number of accepted flits = 383
Average accepted packet length = 1
Total in-flight flits = 3 (3 measured)
===== Time: 6000 =====
Class 0:
Minimum packet latency = 7
Average packet latency = 18.0914
Maximum packet latency = 40
Minimum network latency = 8
Average network latency = 19.0914
Maximum network latency = 41
Slowest packet = 1122
Minimum flit latency = 8
Average flit latency = 19.1174
Maximum flit latency = 41
Slowest flit = 1008
Minimum fragmentation = 0
Average fragmentation = 0
Maximum fragmentation = 0
Minimum injected packet rate = 0.045 (at node 1)
Average injected packet rate = 0.0505833
Maximum injected packet rate = 0.0543333 (at node 0)
Minimum accepted packet rate = 0.0483333 (at node 1)
Average accepted packet rate = 0.0504167
Maximum accepted packet rate = 0.0523333 (at node 2)
Minimum injected flit rate = 0.045 (at node 1)
Average injected flit rate = 0.0505833
Maximum injected flit rate = 0.0543333 (at node 0)
Minimum accepted flit rate = 0.0483333 (at node 1)
Average accepted flit rate = 0.0504167
Maximum accepted flit rate = 0.0523333 (at node 2)
Total number of injected packets = 607
Total number of injected flits = 607
Average injected packet length = 1
Total number of accepted packets = 605
Total number of accepted flits = 605
Average accepted packet length = 1
Total in-flight flits = 5 (5 measured)
===== Time: 7000 =====
Class 0:
Minimum packet latency = 7
Average packet latency = 18.2107
Maximum packet latency = 40
Minimum network latency = 8
Average network latency = 19.2107
Maximum network latency = 41
Slowest packet = 1122
Minimum flit latency = 8
Average flit latency = 19.2298
Maximum flit latency = 41
Slowest flit = 1008
Minimum fragmentation = 0
Average fragmentation = 0
Maximum fragmentation = 0
Minimum injected packet rate = 0.04275 (at node 1)
Average injected packet rate = 0.05025
Maximum injected packet rate = 0.0555 (at node 0)
Minimum accepted packet rate = 0.04825 (at node 1)
Average accepted packet rate = 0.0503125
Maximum accepted packet rate = 0.052 (at node 3)
Minimum injected flit rate = 0.04275 (at node 1)
Average injected flit rate = 0.05025
Maximum injected flit rate = 0.0555 (at node 0)
Minimum accepted flit rate = 0.04825 (at node 1)
Average accepted flit rate = 0.0503125
Maximum accepted flit rate = 0.052 (at node 3)
Total number of injected packets = 804
Total number of injected flits = 804
Average injected packet length = 1
Total number of accepted packets = 805
Total number of accepted flits = 805
Average accepted packet length = 1
Total in-flight flits = 2 (2 measured)
===== Time: 8000 =====
Class 0:
Minimum packet latency = 7
Average packet latency = 18.0303
Maximum packet latency = 40
Minimum network latency = 8
Average network latency = 19.0303
Maximum network latency = 41
Slowest packet = 1122
Minimum flit latency = 8
Average flit latency = 19.0464
Maximum flit latency = 41
Slowest flit = 1008
Minimum fragmentation = 0
Average fragmentation = 0
Maximum fragmentation = 0
Minimum injected packet rate = 0.0462 (at node 1)
Average injected packet rate = 0.04975
Maximum injected packet rate = 0.0522 (at node 0)
Minimum accepted packet rate = 0.0486 (at node 0)
Average accepted packet rate = 0.0496
Maximum accepted packet rate = 0.0502 (at node 3)
Minimum injected flit rate = 0.0462 (at node 1)
Average injected flit rate = 0.04975
Maximum injected flit rate = 0.0522 (at node 0)
Minimum accepted flit rate = 0.0486 (at node 0)
Average accepted flit rate = 0.0496
Maximum accepted flit rate = 0.0502 (at node 3)
Total number of injected packets = 995
Total number of injected flits = 995
Average injected packet length = 1
Total number of accepted packets = 992
Total number of accepted flits = 992
Average accepted packet length = 1
Total in-flight flits = 6 (6 measured)
===== Time: 9000 =====
Class 0:
Minimum packet latency = 7
Average packet latency = 18.151
Maximum packet latency = 45
Minimum network latency = 8
Average network latency = 19.151
Maximum network latency = 46
Slowest packet = 1567
Minimum flit latency = 8
Average flit latency = 19.1641
Maximum flit latency = 46
Slowest flit = 1567
Minimum fragmentation = 0
Average fragmentation = 0
Maximum fragmentation = 0
Minimum injected packet rate = 0.047 (at node 1)
Average injected packet rate = 0.0494583
Maximum injected packet rate = 0.0513333 (at node 2)
Minimum accepted packet rate = 0.0488333 (at node 2)
Average accepted packet rate = 0.04925
Maximum accepted packet rate = 0.0498333 (at node 0)
Minimum injected flit rate = 0.047 (at node 1)
Average injected flit rate = 0.0494583
Maximum injected flit rate = 0.0513333 (at node 2)
Minimum accepted flit rate = 0.0488333 (at node 2)
Average accepted flit rate = 0.04925
Maximum accepted flit rate = 0.0498333 (at node 0)
Total number of injected packets = 1187
Total number of injected flits = 1187
Average injected packet length = 1
Total number of accepted packets = 1182
Total number of accepted flits = 1182
Average accepted packet length = 1
Total in-flight flits = 8 (8 measured)
Draining remaining packets ...
Class 0:
Remaining flits: 1760 1761 1762 1763 (4 flits)
Measured flits: 1760 1761 1762 1763 (4 flits)
Class 0:
Remaining flits: 1762 1763 (2 flits)
Measured flits: 1762 1763 (2 flits)
Class 0:
Remaining flits: (0 flits)
Measured flits: (0 flits)
Class 0:
Remaining flits: (0 flits)
Measured flits: (0 flits)
Class 0:
Remaining flits: (0 flits)
Measured flits: (0 flits)
Class 0:
Remaining flits: (0 flits)
Measured flits: (0 flits)
Class 0:
Remaining flits: (0 flits)
Measured flits: (0 flits)
Class 0:
Remaining flits: (0 flits)
Measured flits: (0 flits)
Class 0:
Remaining flits: (0 flits)
Measured flits: (0 flits)
Class 0:
Remaining flits: (0 flits)
Measured flits: (0 flits)
Class 0:
Remaining flits: (0 flits)
Measured flits: (0 flits)
Class 0:
Remaining flits: (0 flits)
Measured flits: (0 flits)
Class 0:
Remaining flits: (0 flits)
Measured flits: (0 flits)
Class 0:
Remaining flits: (0 flits)
Measured flits: (0 flits)
Class 0:
Remaining flits: (0 flits)
Measured flits: (0 flits)
Class 0:
Remaining flits: (0 flits)
Measured flits: (0 flits)
Class 0:
Remaining flits: (0 flits)
Measured flits: (0 flits)
Class 0:
Remaining flits: (0 flits)
Measured flits: (0 flits)
Class 0:
Remaining flits: (0 flits)
Measured flits: (0 flits)
Class 0:
Remaining flits: (0 flits)
Measured flits: (0 flits)
Class 0:
Remaining flits: (0 flits)
Measured flits: (0 flits)
Class 0:
Remaining flits: (0 flits)
Measured flits: (0 flits)
Class 0:
Remaining flits: (0 flits)
Measured flits: (0 flits)
Class 0:
Remaining flits: (0 flits)
Measured flits: (0 flits)
Class 0:
Remaining flits: (0 flits)
Measured flits: (0 flits)
Class 0:
Remaining flits: (0 flits)
Measured flits: (0 flits)
Class 0:
Remaining flits: (0 flits)
Measured flits: (0 flits)
Class 0:
Remaining flits: (0 flits)
Measured flits: (0 flits)
Class 0:
Remaining flits: (0 flits)
Measured flits: (0 flits)
Class 0:
Remaining flits: (0 flits)
Measured flits: (0 flits)
Class 0:
Remaining flits: (0 flits)
Measured flits: (0 flits)
Class 0:
Remaining flits: (0 flits)
Measured flits: (0 flits)
Class 0:
Remaining flits: (0 flits)
Measured flits: (0 flits)
Class 0:
Remaining flits: (0 flits)
Measured flits: (0 flits)
Class 0:
Remaining flits: (0 flits)
Measured flits: (0 flits)
Class 0:
Remaining flits: (0 flits)
Measured flits: (0 flits)
Class 0:
Remaining flits: (0 flits)
Measured flits: (0 flits)
Class 0:
Remaining flits: (0 flits)
Measured flits: (0 flits)
Class 0:
Remaining flits: (0 flits)
Measured flits: (0 flits)
Class 0:
Remaining flits: (0 flits)
Measured flits: (0 flits)
Class 0:
Remaining flits: (0 flits)
Measured flits: (0 flits)
Class 0:
Remaining flits: (0 flits)
Measured flits: (0 flits)
Class 0:
Remaining flits: (0 flits)
Measured flits: (0 flits)
Class 0:
Remaining flits: (0 flits)
Measured flits: (0 flits)
Class 0:
Remaining flits: (0 flits)
Measured flits: (0 flits)
Class 0:
Remaining flits: (0 flits)
Measured flits: (0 flits)
Class 0:
Remaining flits: (0 flits)
Measured flits: (0 flits)
Class 0:
Remaining flits: (0 flits)
Measured flits: (0 flits)
Class 0:
Remaining flits: (0 flits)
Measured flits: (0 flits)
Class 0:
Remaining flits: (0 flits)
Measured flits: (0 flits)
Class 0:
Remaining flits: (0 flits)
Measured flits: (0 flits)
Class 0:
Remaining flits: (0 flits)
Measured flits: (0 flits)
Class 0:
Remaining flits: (0 flits)
Measured flits: (0 flits)
Class 0:
Remaining flits: (0 flits)
Measured flits: (0 flits)
Class 0:
Remaining flits: (0 flits)
Measured flits: (0 flits)
Class 0:
Remaining flits: (0 flits)
Measured flits: (0 flits)
Class 0:
Remaining flits: (0 flits)
Measured flits: (0 flits)
Class 0:
Remaining flits: (0 flits)
Measured flits: (0 flits)
Class 0:
Remaining flits: (0 flits)
Measured flits: (0 flits)
Class 0:
Remaining flits: (0 flits)
Measured flits: (0 flits)
Class 0:
Remaining flits: (0 flits)
Measured flits: (0 flits)
Class 0:
Remaining flits: (0 flits)
Measured flits: (0 flits)
Class 0:
Remaining flits: (0 flits)
Measured flits: (0 flits)
Class 0:
Remaining flits: (0 flits)
Measured flits: (0 flits)
Class 0:
Remaining flits: (0 flits)
Measured flits: (0 flits)
Class 0:
Remaining flits: (0 flits)
Measured flits: (0 flits)
Class 0:
Remaining flits: (0 flits)
Measured flits: (0 flits)
Class 0:
Remaining flits: (0 flits)
Measured flits: (0 flits)
Class 0:
Remaining flits: (0 flits)
Measured flits: (0 flits)
Class 0:
Remaining flits: (0 flits)
Measured flits: (0 flits)
Class 0:
Remaining flits: (0 flits)
Measured flits: (0 flits)
Class 0:
Remaining flits: (0 flits)
Measured flits: (0 flits)
Class 0:
Remaining flits: (0 flits)
Measured flits: (0 flits)
Class 0:
Remaining flits: (0 flits)
Measured flits: (0 flits)
Class 0:
Remaining flits: (0 flits)
Measured flits: (0 flits)
Class 0:
Remaining flits: (0 flits)
Measured flits: (0 flits)
Class 0:
Remaining flits: (0 flits)
Measured flits: (0 flits)
Class 0:
Remaining flits: (0 flits)
Measured flits: (0 flits)
Class 0:
Remaining flits: (0 flits)
Measured flits: (0 flits)
Class 0:
Remaining flits: (0 flits)
Measured flits: (0 flits)
Class 0:
Remaining flits: (0 flits)
Measured flits: (0 flits)
Class 0:
Remaining flits: (0 flits)
Measured flits: (0 flits)
Class 0:
Remaining flits: (0 flits)
Measured flits: (0 flits)
Class 0:
Remaining flits: (0 flits)
Measured flits: (0 flits)
Class 0:
Remaining flits: (0 flits)
Measured flits: (0 flits)
Class 0:
Remaining flits: (0 flits)
Measured flits: (0 flits)
Class 0:
Remaining flits: (0 flits)
Measured flits: (0 flits)
Class 0:
Remaining flits: (0 flits)
Measured flits: (0 flits)
Class 0:
Remaining flits: (0 flits)
Measured flits: (0 flits)
Class 0:
Remaining flits: (0 flits)
Measured flits: (0 flits)
Class 0:
Remaining flits: (0 flits)
Measured flits: (0 flits)
Class 0:
Remaining flits: (0 flits)
Measured flits: (0 flits)
Class 0:
Remaining flits: (0 flits)
Measured flits: (0 flits)
Class 0:
Remaining flits: (0 flits)
Measured flits: (0 flits)
Class 0:
Remaining flits: (0 flits)
Measured flits: (0 flits)
Class 0:
Remaining flits: (0 flits)
Measured flits: (0 flits)
Class 0:
Remaining flits: (0 flits)
Measured flits: (0 flits)
Class 0:
Remaining flits: (0 flits)
Measured flits: (0 flits)
Class 0:
Remaining flits: (0 flits)
Measured flits: (0 flits)
Class 0:
Remaining flits: (0 flits)
Measured flits: (0 flits)
Class 0:
Remaining flits: (0 flits)
Measured flits: (0 flits)
Time taken is 10000 cycles
====== Traffic class 0 ======

Total number of flits generated = 1764, changed lanes = 1595
Overall minimum packet latency = 7 (1 samples)
Overall average packet latency = 18.1879 (1 samples)
Overall maximum packet latency = 45 (1 samples)
Overall minimum network latency = 8 (1 samples)
Overall average network latency = 19.1879 (1 samples)
Overall maximum network latency = 46 (1 samples)
Overall minimum flit latency = 8 (1 samples)
Overall average flit latency = 19.2008 (1 samples)
Overall maximum flit latency = 46 (1 samples)
Overall minimum fragmentation = 0 (1 samples)
Overall average fragmentation = 0 (1 samples)
Overall maximum fragmentation = 0 (1 samples)
Overall minimum injected packet rate = 0.047 (1 samples)
Overall average injected packet rate = 0.0494583 (1 samples)
Overall maximum injected packet rate = 0.0513333 (1 samples)
Overall minimum accepted packet rate = 0.0488333 (1 samples)
Overall average accepted packet rate = 0.04925 (1 samples)
Overall maximum accepted packet rate = 0.0498333 (1 samples)
Overall minimum injected flit rate = 0.047 (1 samples)
Overall average injected flit rate = 0.0494583 (1 samples)
Overall maximum injected flit rate = 0.0513333 (1 samples)
Overall minimum accepted flit rate = 0.0488333 (1 samples)
Overall average accepted flit rate = 0.04925 (1 samples)
Overall maximum accepted flit rate = 0.0498333 (1 samples)
Overall average injected packet size = 1 (1 samples)
Overall average accepted packet size = 1 (1 samples)
Overall average hops = 1.96293 (1 samples)
Overall throughput of the network (flits/cycle) = 0.294
Overall throughput of the network (packets/cycle) = 0.294
Total run time 2.69569
