make: Nothing to be done for 'all'.
Master: Running timer....
Master: Running SRC....
BEGIN Configuration File: ./examples/bitrev
// Topology

topology = torus;
k = 8;
n = 2;

// Routing
routing_function = dim_order;

// Flow control
num_vcs     = 4;
vc_buf_size = 4;
wait_for_tail_credit = 0;

// Router architecture
vc_allocator = islip;
sw_allocator = islip;
alloc_iters  = 1;

credit_delay   = 1;
routing_delay  = 1;
vc_alloc_delay = 1;
sw_alloc_delay = 1;

input_speedup     = 1;
output_speedup    = 1;
internal_speedup  = 1.0;

vc_busy_when_full = 0;

// Traffic
traffic = uniform;
packet_size = 1;

// Simulation
sim_type = throughput;

injection_rate = 0.05;

END Configuration File: ./examples/bitrev
===== Time: 1000 =====
Class 0:
Minimum packet latency = 8
Average packet latency = 59.8465
Maximum packet latency = 150
Minimum network latency = 9
Average network latency = 60.8465
Maximum network latency = 151
Slowest packet = 1071
Minimum flit latency = 9
Average flit latency = 60.8465
Maximum flit latency = 151
Slowest flit = 1071
Minimum fragmentation = 0
Average fragmentation = 0
Maximum fragmentation = 0
Minimum injected packet rate = 0.034 (at node 9)
Average injected packet rate = 0.0495312
Maximum injected packet rate = 0.064 (at node 41)
Minimum accepted packet rate = 0.031 (at node 59)
Average accepted packet rate = 0.0465156
Maximum accepted packet rate = 0.061 (at node 51)
Minimum injected flit rate = 0.034 (at node 9)
Average injected flit rate = 0.0495312
Maximum injected flit rate = 0.064 (at node 41)
Minimum accepted flit rate = 0.031 (at node 59)
Average accepted flit rate = 0.0465156
Maximum accepted flit rate = 0.061 (at node 51)
Total number of injected packets = 3170
Total number of injected flits = 3170
Average injected packet length = 1
Total number of accepted packets = 2977
Total number of accepted flits = 2977
Average accepted packet length = 1
Total in-flight flits = 193 (0 measured)
===== Time: 2000 =====
Class 0:
Minimum packet latency = 8
Average packet latency = 60.3542
Maximum packet latency = 150
Minimum network latency = 9
Average network latency = 61.3542
Maximum network latency = 151
Slowest packet = 1071
Minimum flit latency = 9
Average flit latency = 61.3542
Maximum flit latency = 151
Slowest flit = 1071
Minimum fragmentation = 0
Average fragmentation = 0
Maximum fragmentation = 0
Minimum injected packet rate = 0.04 (at node 9)
Average injected packet rate = 0.0495469
Maximum injected packet rate = 0.0595 (at node 37)
Minimum accepted packet rate = 0.038 (at node 46)
Average accepted packet rate = 0.0481094
Maximum accepted packet rate = 0.0605 (at node 24)
Minimum injected flit rate = 0.04 (at node 9)
Average injected flit rate = 0.0495469
Maximum injected flit rate = 0.0595 (at node 37)
Minimum accepted flit rate = 0.038 (at node 46)
Average accepted flit rate = 0.0481094
Maximum accepted flit rate = 0.0605 (at node 24)
Total number of injected packets = 6342
Total number of injected flits = 6342
Average injected packet length = 1
Total number of accepted packets = 6158
Total number of accepted flits = 6158
Average accepted packet length = 1
Total in-flight flits = 184 (0 measured)
===== Time: 3000 =====
Class 0:
Minimum packet latency = 8
Average packet latency = 60.8166
Maximum packet latency = 148
Minimum network latency = 9
Average network latency = 61.8166
Maximum network latency = 149
Slowest packet = 6465
Minimum flit latency = 9
Average flit latency = 61.8166
Maximum flit latency = 149
Slowest flit = 6465
Minimum fragmentation = 0
Average fragmentation = 0
Maximum fragmentation = 0
Minimum injected packet rate = 0.035 (at node 14)
Average injected packet rate = 0.05
Maximum injected packet rate = 0.07 (at node 47)
Minimum accepted packet rate = 0.034 (at node 52)
Average accepted packet rate = 0.0495
Maximum accepted packet rate = 0.065 (at node 11)
Minimum injected flit rate = 0.035 (at node 14)
Average injected flit rate = 0.05
Maximum injected flit rate = 0.07 (at node 47)
Minimum accepted flit rate = 0.034 (at node 52)
Average accepted flit rate = 0.0495
Maximum accepted flit rate = 0.065 (at node 11)
Total number of injected packets = 3200
Total number of injected flits = 3200
Average injected packet length = 1
Total number of accepted packets = 3168
Total number of accepted flits = 3168
Average accepted packet length = 1
Total in-flight flits = 216 (0 measured)
===== Time: 4000 =====
Class 0:
Minimum packet latency = 8
Average packet latency = 60.8588
Maximum packet latency = 175
Minimum network latency = 9
Average network latency = 61.8588
Maximum network latency = 176
Slowest packet = 11759
Minimum flit latency = 9
Average flit latency = 62.366
Maximum flit latency = 176
Slowest flit = 11759
Minimum fragmentation = 0
Average fragmentation = 0
Maximum fragmentation = 0
Minimum injected packet rate = 0.035 (at node 52)
Average injected packet rate = 0.05125
Maximum injected packet rate = 0.066 (at node 34)
Minimum accepted packet rate = 0.031 (at node 19)
Average accepted packet rate = 0.0516094
Maximum accepted packet rate = 0.074 (at node 28)
Minimum injected flit rate = 0.035 (at node 52)
Average injected flit rate = 0.05125
Maximum injected flit rate = 0.066 (at node 34)
Minimum accepted flit rate = 0.031 (at node 19)
Average accepted flit rate = 0.0516094
Maximum accepted flit rate = 0.074 (at node 28)
Total number of injected packets = 3280
Total number of injected flits = 3280
Average injected packet length = 1
Total number of accepted packets = 3303
Total number of accepted flits = 3303
Average accepted packet length = 1
Total in-flight flits = 193 (193 measured)
===== Time: 5000 =====
Class 0:
Minimum packet latency = 8
Average packet latency = 60.8754
Maximum packet latency = 175
Minimum network latency = 9
Average network latency = 61.8754
Maximum network latency = 176
Slowest packet = 11759
Minimum flit latency = 9
Average flit latency = 62.133
Maximum flit latency = 176
Slowest flit = 11759
Minimum fragmentation = 0
Average fragmentation = 0
Maximum fragmentation = 0
Minimum injected packet rate = 0.038 (at node 52)
Average injected packet rate = 0.0505469
Maximum injected packet rate = 0.0635 (at node 43)
Minimum accepted packet rate = 0.0355 (at node 22)
Average accepted packet rate = 0.0507031
Maximum accepted packet rate = 0.0615 (at node 38)
Minimum injected flit rate = 0.038 (at node 52)
Average injected flit rate = 0.0505469
Maximum injected flit rate = 0.0635 (at node 43)
Minimum accepted flit rate = 0.0355 (at node 22)
Average accepted flit rate = 0.0507031
Maximum accepted flit rate = 0.0615 (at node 38)
Total number of injected packets = 6470
Total number of injected flits = 6470
Average injected packet length = 1
Total number of accepted packets = 6490
Total number of accepted flits = 6490
Average accepted packet length = 1
Total in-flight flits = 196 (196 measured)
===== Time: 6000 =====
Class 0:
Minimum packet latency = 8
Average packet latency = 60.9281
Maximum packet latency = 175
Minimum network latency = 9
Average network latency = 61.9281
Maximum network latency = 176
Slowest packet = 11759
Minimum flit latency = 9
Average flit latency = 62.099
Maximum flit latency = 176
Slowest flit = 11759
Minimum fragmentation = 0
Average fragmentation = 0
Maximum fragmentation = 0
Minimum injected packet rate = 0.039 (at node 53)
Average injected packet rate = 0.0505
Maximum injected packet rate = 0.057 (at node 20)
Minimum accepted packet rate = 0.038 (at node 22)
Average accepted packet rate = 0.0506198
Maximum accepted packet rate = 0.0576667 (at node 59)
Minimum injected flit rate = 0.039 (at node 53)
Average injected flit rate = 0.0505
Maximum injected flit rate = 0.057 (at node 20)
Minimum accepted flit rate = 0.038 (at node 22)
Average accepted flit rate = 0.0506198
Maximum accepted flit rate = 0.0576667 (at node 59)
Total number of injected packets = 9696
Total number of injected flits = 9696
Average injected packet length = 1
Total number of accepted packets = 9719
Total number of accepted flits = 9719
Average accepted packet length = 1
Total in-flight flits = 193 (193 measured)
Draining remaining packets ...
Class 0:
Remaining flits: 18966 18973 18986 18992 19005 19011 19015 19016 19019 19020 [...] (163 flits)
Measured flits: 18966 18973 18986 18992 19005 19011 19015 19016 19019 19020 [...] (163 flits)
Class 0:
Remaining flits: 18986 19015 19020 19031 19035 19038 19041 19048 19051 19054 [...] (138 flits)
Measured flits: 18986 19015 19020 19031 19035 19038 19041 19048 19051 19054 [...] (138 flits)
Class 0:
Remaining flits: 18986 19035 19048 19051 19061 19062 19068 19071 19073 19075 [...] (107 flits)
Measured flits: 18986 19035 19048 19051 19061 19062 19068 19071 19073 19075 [...] (107 flits)
Class 0:
Remaining flits: 19048 19082 19092 19094 19096 19098 19110 19112 19114 19115 [...] (62 flits)
Measured flits: 19048 19082 19092 19094 19096 19098 19110 19112 19114 19115 [...] (62 flits)
Class 0:
Remaining flits: 19082 19092 19098 19115 19126 19134 19144 19145 19166 19171 [...] (40 flits)
Measured flits: 19082 19092 19098 19115 19126 19134 19144 19145 19166 19171 [...] (40 flits)
Class 0:
Remaining flits: 19092 19115 19126 19134 19144 19145 19166 19171 19172 19173 [...] (30 flits)
Measured flits: 19092 19115 19126 19134 19144 19145 19166 19171 19172 19173 [...] (30 flits)
Class 0:
Remaining flits: 19126 19145 19173 19177 19178 19184 19190 19192 19194 19197 [...] (19 flits)
Measured flits: 19126 19145 19173 19177 19178 19184 19190 19192 19194 19197 [...] (19 flits)
Class 0:
Remaining flits: 19197 19199 19207 19217 19220 19221 (6 flits)
Measured flits: 19197 19199 19207 19217 19220 19221 (6 flits)
Class 0:
Remaining flits: 19197 19221 (2 flits)
Measured flits: 19197 19221 (2 flits)
Class 0:
Remaining flits: (0 flits)
Measured flits: (0 flits)
Class 0:
Remaining flits: (0 flits)
Measured flits: (0 flits)
Class 0:
Remaining flits: (0 flits)
Measured flits: (0 flits)
Class 0:
Remaining flits: (0 flits)
Measured flits: (0 flits)
Class 0:
Remaining flits: (0 flits)
Measured flits: (0 flits)
Class 0:
Remaining flits: (0 flits)
Measured flits: (0 flits)
Class 0:
Remaining flits: (0 flits)
Measured flits: (0 flits)
Class 0:
Remaining flits: (0 flits)
Measured flits: (0 flits)
Class 0:
Remaining flits: (0 flits)
Measured flits: (0 flits)
Class 0:
Remaining flits: (0 flits)
Measured flits: (0 flits)
Class 0:
Remaining flits: (0 flits)
Measured flits: (0 flits)
Class 0:
Remaining flits: (0 flits)
Measured flits: (0 flits)
Class 0:
Remaining flits: (0 flits)
Measured flits: (0 flits)
Class 0:
Remaining flits: (0 flits)
Measured flits: (0 flits)
Class 0:
Remaining flits: (0 flits)
Measured flits: (0 flits)
Class 0:
Remaining flits: (0 flits)
Measured flits: (0 flits)
Class 0:
Remaining flits: (0 flits)
Measured flits: (0 flits)
Class 0:
Remaining flits: (0 flits)
Measured flits: (0 flits)
Class 0:
Remaining flits: (0 flits)
Measured flits: (0 flits)
Class 0:
Remaining flits: (0 flits)
Measured flits: (0 flits)
Class 0:
Remaining flits: (0 flits)
Measured flits: (0 flits)
Class 0:
Remaining flits: (0 flits)
Measured flits: (0 flits)
Class 0:
Remaining flits: (0 flits)
Measured flits: (0 flits)
Class 0:
Remaining flits: (0 flits)
Measured flits: (0 flits)
Class 0:
Remaining flits: (0 flits)
Measured flits: (0 flits)
Class 0:
Remaining flits: (0 flits)
Measured flits: (0 flits)
Class 0:
Remaining flits: (0 flits)
Measured flits: (0 flits)
Class 0:
Remaining flits: (0 flits)
Measured flits: (0 flits)
Class 0:
Remaining flits: (0 flits)
Measured flits: (0 flits)
Class 0:
Remaining flits: (0 flits)
Measured flits: (0 flits)
Class 0:
Remaining flits: (0 flits)
Measured flits: (0 flits)
Class 0:
Remaining flits: (0 flits)
Measured flits: (0 flits)
Class 0:
Remaining flits: (0 flits)
Measured flits: (0 flits)
Class 0:
Remaining flits: (0 flits)
Measured flits: (0 flits)
Class 0:
Remaining flits: (0 flits)
Measured flits: (0 flits)
Class 0:
Remaining flits: (0 flits)
Measured flits: (0 flits)
Class 0:
Remaining flits: (0 flits)
Measured flits: (0 flits)
Class 0:
Remaining flits: (0 flits)
Measured flits: (0 flits)
Class 0:
Remaining flits: (0 flits)
Measured flits: (0 flits)
Class 0:
Remaining flits: (0 flits)
Measured flits: (0 flits)
Class 0:
Remaining flits: (0 flits)
Measured flits: (0 flits)
Class 0:
Remaining flits: (0 flits)
Measured flits: (0 flits)
Class 0:
Remaining flits: (0 flits)
Measured flits: (0 flits)
Class 0:
Remaining flits: (0 flits)
Measured flits: (0 flits)
Class 0:
Remaining flits: (0 flits)
Measured flits: (0 flits)
Class 0:
Remaining flits: (0 flits)
Measured flits: (0 flits)
Class 0:
Remaining flits: (0 flits)
Measured flits: (0 flits)
Class 0:
Remaining flits: (0 flits)
Measured flits: (0 flits)
Class 0:
Remaining flits: (0 flits)
Measured flits: (0 flits)
Class 0:
Remaining flits: (0 flits)
Measured flits: (0 flits)
Class 0:
Remaining flits: (0 flits)
Measured flits: (0 flits)
Class 0:
Remaining flits: (0 flits)
Measured flits: (0 flits)
Class 0:
Remaining flits: (0 flits)
Measured flits: (0 flits)
Class 0:
Remaining flits: (0 flits)
Measured flits: (0 flits)
Class 0:
Remaining flits: (0 flits)
Measured flits: (0 flits)
Class 0:
Remaining flits: (0 flits)
Measured flits: (0 flits)
Class 0:
Remaining flits: (0 flits)
Measured flits: (0 flits)
Class 0:
Remaining flits: (0 flits)
Measured flits: (0 flits)
Class 0:
Remaining flits: (0 flits)
Measured flits: (0 flits)
Class 0:
Remaining flits: (0 flits)
Measured flits: (0 flits)
Class 0:
Remaining flits: (0 flits)
Measured flits: (0 flits)
Class 0:
Remaining flits: (0 flits)
Measured flits: (0 flits)
Class 0:
Remaining flits: (0 flits)
Measured flits: (0 flits)
Class 0:
Remaining flits: (0 flits)
Measured flits: (0 flits)
Class 0:
Remaining flits: (0 flits)
Measured flits: (0 flits)
Class 0:
Remaining flits: (0 flits)
Measured flits: (0 flits)
Class 0:
Remaining flits: (0 flits)
Measured flits: (0 flits)
Class 0:
Remaining flits: (0 flits)
Measured flits: (0 flits)
Class 0:
Remaining flits: (0 flits)
Measured flits: (0 flits)
Class 0:
Remaining flits: (0 flits)
Measured flits: (0 flits)
Class 0:
Remaining flits: (0 flits)
Measured flits: (0 flits)
Class 0:
Remaining flits: (0 flits)
Measured flits: (0 flits)
Class 0:
Remaining flits: (0 flits)
Measured flits: (0 flits)
Class 0:
Remaining flits: (0 flits)
Measured flits: (0 flits)
Class 0:
Remaining flits: (0 flits)
Measured flits: (0 flits)
Class 0:
Remaining flits: (0 flits)
Measured flits: (0 flits)
Class 0:
Remaining flits: (0 flits)
Measured flits: (0 flits)
Class 0:
Remaining flits: (0 flits)
Measured flits: (0 flits)
Class 0:
Remaining flits: (0 flits)
Measured flits: (0 flits)
Class 0:
Remaining flits: (0 flits)
Measured flits: (0 flits)
Class 0:
Remaining flits: (0 flits)
Measured flits: (0 flits)
Class 0:
Remaining flits: (0 flits)
Measured flits: (0 flits)
Class 0:
Remaining flits: (0 flits)
Measured flits: (0 flits)
Class 0:
Remaining flits: (0 flits)
Measured flits: (0 flits)
Class 0:
Remaining flits: (0 flits)
Measured flits: (0 flits)
Class 0:
Remaining flits: (0 flits)
Measured flits: (0 flits)
Class 0:
Remaining flits: (0 flits)
Measured flits: (0 flits)
Class 0:
Remaining flits: (0 flits)
Measured flits: (0 flits)
Class 0:
Remaining flits: (0 flits)
Measured flits: (0 flits)
Class 0:
Remaining flits: (0 flits)
Measured flits: (0 flits)
Class 0:
Remaining flits: (0 flits)
Measured flits: (0 flits)
Class 0:
Remaining flits: (0 flits)
Measured flits: (0 flits)
Time taken is 7000 cycles
====== Traffic class 0 ======

Total number of flits generated = 19238, changed lanes = 18865
Overall minimum packet latency = 8 (1 samples)
Overall average packet latency = 61.0751 (1 samples)
Overall maximum packet latency = 175 (1 samples)
Overall minimum network latency = 9 (1 samples)
Overall average network latency = 62.0751 (1 samples)
Overall maximum network latency = 176 (1 samples)
Overall minimum flit latency = 9 (1 samples)
Overall average flit latency = 62.2394 (1 samples)
Overall maximum flit latency = 176 (1 samples)
Overall minimum fragmentation = 0 (1 samples)
Overall average fragmentation = 0 (1 samples)
Overall maximum fragmentation = 0 (1 samples)
Overall minimum injected packet rate = 0.039 (1 samples)
Overall average injected packet rate = 0.0505 (1 samples)
Overall maximum injected packet rate = 0.057 (1 samples)
Overall minimum accepted packet rate = 0.038 (1 samples)
Overall average accepted packet rate = 0.0506198 (1 samples)
Overall maximum accepted packet rate = 0.0576667 (1 samples)
Overall minimum injected flit rate = 0.039 (1 samples)
Overall average injected flit rate = 0.0505 (1 samples)
Overall maximum injected flit rate = 0.057 (1 samples)
Overall minimum accepted flit rate = 0.038 (1 samples)
Overall average accepted flit rate = 0.0506198 (1 samples)
Overall maximum accepted flit rate = 0.0576667 (1 samples)
Overall average injected packet size = 1 (1 samples)
Overall average accepted packet size = 1 (1 samples)
Overall average hops = 5.00351 (1 samples)
Overall throughput of the network (flits/cycle) = 6.41267
Overall throughput of the network (packets/cycle) = 6.41267
Total run time 26.8013
