make: Nothing to be done for 'all'.
Master: Running timer....
Master: Running SRC....
BEGIN Configuration File: ./examples/bitrev
// Topology

topology = torus;
k = 16;
n = 2;

// Routing
routing_function = dim_order;

// Flow control
num_vcs     = 4;
vc_buf_size = 4;
wait_for_tail_credit = 0;

// Router architecture
vc_allocator = islip;
sw_allocator = islip;
alloc_iters  = 1;

credit_delay   = 1;
routing_delay  = 1;
vc_alloc_delay = 1;
sw_alloc_delay = 1;

input_speedup     = 1;
output_speedup    = 1;
internal_speedup  = 1.0;

vc_busy_when_full = 0;

// Traffic
traffic = uniform;
packet_size = 1;

// Simulation
sim_type = throughput;

injection_rate = 0.05;

END Configuration File: ./examples/bitrev
===== Time: 1000 =====
Class 0:
Minimum packet latency = 8
Average packet latency = 119.018
Maximum packet latency = 309
Minimum network latency = 9
Average network latency = 120.018
Maximum network latency = 310
Slowest packet = 8051
Minimum flit latency = 9
Average flit latency = 120.018
Maximum flit latency = 310
Slowest flit = 8051
Minimum fragmentation = 0
Average fragmentation = 0
Maximum fragmentation = 0
Minimum injected packet rate = 0.032 (at node 166)
Average injected packet rate = 0.0500859
Maximum injected packet rate = 0.07 (at node 47)
Minimum accepted packet rate = 0.026 (at node 116)
Average accepted packet rate = 0.0437031
Maximum accepted packet rate = 0.065 (at node 24)
Minimum injected flit rate = 0.032 (at node 166)
Average injected flit rate = 0.0500859
Maximum injected flit rate = 0.07 (at node 47)
Minimum accepted flit rate = 0.026 (at node 116)
Average accepted flit rate = 0.0437031
Maximum accepted flit rate = 0.065 (at node 24)
Total number of injected packets = 12822
Total number of injected flits = 12822
Average injected packet length = 1
Total number of accepted packets = 11188
Total number of accepted flits = 11188
Average accepted packet length = 1
Total in-flight flits = 1634 (0 measured)
===== Time: 2000 =====
Class 0:
Minimum packet latency = 8
Average packet latency = 120.566
Maximum packet latency = 362
Minimum network latency = 9
Average network latency = 121.566
Maximum network latency = 363
Slowest packet = 14716
Minimum flit latency = 9
Average flit latency = 121.566
Maximum flit latency = 363
Slowest flit = 14716
Minimum fragmentation = 0
Average fragmentation = 0
Maximum fragmentation = 0
Minimum injected packet rate = 0.039 (at node 9)
Average injected packet rate = 0.0499551
Maximum injected packet rate = 0.065 (at node 135)
Minimum accepted packet rate = 0.0345 (at node 254)
Average accepted packet rate = 0.0468379
Maximum accepted packet rate = 0.0605 (at node 25)
Minimum injected flit rate = 0.039 (at node 9)
Average injected flit rate = 0.0499551
Maximum injected flit rate = 0.065 (at node 135)
Minimum accepted flit rate = 0.0345 (at node 254)
Average accepted flit rate = 0.0468379
Maximum accepted flit rate = 0.0605 (at node 25)
Total number of injected packets = 25577
Total number of injected flits = 25577
Average injected packet length = 1
Total number of accepted packets = 23981
Total number of accepted flits = 23981
Average accepted packet length = 1
Total in-flight flits = 1596 (0 measured)
===== Time: 3000 =====
Class 0:
Minimum packet latency = 8
Average packet latency = 121.358
Maximum packet latency = 299
Minimum network latency = 9
Average network latency = 122.358
Maximum network latency = 300
Slowest packet = 26242
Minimum flit latency = 9
Average flit latency = 122.358
Maximum flit latency = 300
Slowest flit = 26242
Minimum fragmentation = 0
Average fragmentation = 0
Maximum fragmentation = 0
Minimum injected packet rate = 0.035 (at node 27)
Average injected packet rate = 0.0504062
Maximum injected packet rate = 0.071 (at node 78)
Minimum accepted packet rate = 0.031 (at node 30)
Average accepted packet rate = 0.0503242
Maximum accepted packet rate = 0.072 (at node 223)
Minimum injected flit rate = 0.035 (at node 27)
Average injected flit rate = 0.0504062
Maximum injected flit rate = 0.071 (at node 78)
Minimum accepted flit rate = 0.031 (at node 30)
Average accepted flit rate = 0.0503242
Maximum accepted flit rate = 0.072 (at node 223)
Total number of injected packets = 12904
Total number of injected flits = 12904
Average injected packet length = 1
Total number of accepted packets = 12883
Total number of accepted flits = 12883
Average accepted packet length = 1
Total in-flight flits = 1617 (0 measured)
===== Time: 4000 =====
Class 0:
Minimum packet latency = 8
Average packet latency = 118.895
Maximum packet latency = 287
Minimum network latency = 9
Average network latency = 119.895
Maximum network latency = 288
Slowest packet = 41481
Minimum flit latency = 9
Average flit latency = 122.848
Maximum flit latency = 294
Slowest flit = 37098
Minimum fragmentation = 0
Average fragmentation = 0
Maximum fragmentation = 0
Minimum injected packet rate = 0.029 (at node 92)
Average injected packet rate = 0.0499531
Maximum injected packet rate = 0.073 (at node 165)
Minimum accepted packet rate = 0.029 (at node 110)
Average accepted packet rate = 0.0500195
Maximum accepted packet rate = 0.071 (at node 200)
Minimum injected flit rate = 0.029 (at node 92)
Average injected flit rate = 0.0499531
Maximum injected flit rate = 0.073 (at node 165)
Minimum accepted flit rate = 0.029 (at node 110)
Average accepted flit rate = 0.0500195
Maximum accepted flit rate = 0.071 (at node 200)
Total number of injected packets = 12788
Total number of injected flits = 12788
Average injected packet length = 1
Total number of accepted packets = 12805
Total number of accepted flits = 12805
Average accepted packet length = 1
Total in-flight flits = 1600 (1600 measured)
===== Time: 5000 =====
Class 0:
Minimum packet latency = 8
Average packet latency = 120.141
Maximum packet latency = 292
Minimum network latency = 9
Average network latency = 121.141
Maximum network latency = 293
Slowest packet = 55907
Minimum flit latency = 9
Average flit latency = 122.54
Maximum flit latency = 294
Slowest flit = 37098
Minimum fragmentation = 0
Average fragmentation = 0
Maximum fragmentation = 0
Minimum injected packet rate = 0.0345 (at node 195)
Average injected packet rate = 0.049959
Maximum injected packet rate = 0.0635 (at node 165)
Minimum accepted packet rate = 0.0345 (at node 110)
Average accepted packet rate = 0.0499805
Maximum accepted packet rate = 0.064 (at node 213)
Minimum injected flit rate = 0.0345 (at node 195)
Average injected flit rate = 0.049959
Maximum injected flit rate = 0.0635 (at node 165)
Minimum accepted flit rate = 0.0345 (at node 110)
Average accepted flit rate = 0.0499805
Maximum accepted flit rate = 0.064 (at node 213)
Total number of injected packets = 25579
Total number of injected flits = 25579
Average injected packet length = 1
Total number of accepted packets = 25590
Total number of accepted flits = 25590
Average accepted packet length = 1
Total in-flight flits = 1606 (1606 measured)
===== Time: 6000 =====
Class 0:
Minimum packet latency = 8
Average packet latency = 121.08
Maximum packet latency = 313
Minimum network latency = 9
Average network latency = 122.08
Maximum network latency = 314
Slowest packet = 63127
Minimum flit latency = 9
Average flit latency = 122.968
Maximum flit latency = 314
Slowest flit = 63127
Minimum fragmentation = 0
Average fragmentation = 0
Maximum fragmentation = 0
Minimum injected packet rate = 0.0386667 (at node 92)
Average injected packet rate = 0.0501523
Maximum injected packet rate = 0.0596667 (at node 102)
Minimum accepted packet rate = 0.038 (at node 188)
Average accepted packet rate = 0.0502396
Maximum accepted packet rate = 0.0606667 (at node 213)
Minimum injected flit rate = 0.0386667 (at node 92)
Average injected flit rate = 0.0501523
Maximum injected flit rate = 0.0596667 (at node 102)
Minimum accepted flit rate = 0.038 (at node 188)
Average accepted flit rate = 0.0502396
Maximum accepted flit rate = 0.0606667 (at node 213)
Total number of injected packets = 38517
Total number of injected flits = 38517
Average injected packet length = 1
Total number of accepted packets = 38584
Total number of accepted flits = 38584
Average accepted packet length = 1
Total in-flight flits = 1550 (1550 measured)
Draining remaining packets ...
Class 0:
Remaining flits: 73803 73887 73998 74154 74225 74231 74239 74293 74299 74312 [...] (1430 flits)
Measured flits: 73803 73887 73998 74154 74225 74231 74239 74293 74299 74312 [...] (1430 flits)
Class 0:
Remaining flits: 73887 74154 74225 74239 74293 74312 74337 74360 74480 74534 [...] (1294 flits)
Measured flits: 73887 74154 74225 74239 74293 74312 74337 74360 74480 74534 [...] (1294 flits)
Class 0:
Remaining flits: 73887 74239 74337 74534 74636 74648 74717 74726 74743 74768 [...] (1163 flits)
Measured flits: 73887 74239 74337 74534 74636 74648 74717 74726 74743 74768 [...] (1163 flits)
Class 0:
Remaining flits: 73887 74636 74743 74778 74814 74899 74920 74967 74976 75010 [...] (1034 flits)
Measured flits: 73887 74636 74743 74778 74814 74899 74920 74967 74976 75010 [...] (1034 flits)
Class 0:
Remaining flits: 74636 74743 74778 74814 74920 74967 74976 75037 75046 75062 [...] (916 flits)
Measured flits: 74636 74743 74778 74814 74920 74967 74976 75037 75046 75062 [...] (916 flits)
Class 0:
Remaining flits: 74814 74976 75037 75046 75062 75179 75184 75186 75191 75203 [...] (802 flits)
Measured flits: 74814 74976 75037 75046 75062 75179 75184 75186 75191 75203 [...] (802 flits)
Class 0:
Remaining flits: 74814 74976 75037 75046 75062 75179 75186 75191 75203 75208 [...] (700 flits)
Measured flits: 74814 74976 75037 75046 75062 75179 75186 75191 75203 75208 [...] (700 flits)
Class 0:
Remaining flits: 74814 75037 75046 75062 75179 75186 75208 75214 75218 75236 [...] (595 flits)
Measured flits: 74814 75037 75046 75062 75179 75186 75208 75214 75218 75236 [...] (595 flits)
Class 0:
Remaining flits: 74814 75046 75179 75208 75214 75218 75236 75248 75291 75384 [...] (487 flits)
Measured flits: 74814 75046 75179 75208 75214 75218 75236 75248 75291 75384 [...] (487 flits)
Class 0:
Remaining flits: 74814 75214 75218 75236 75291 75384 75471 75482 75576 75604 [...] (387 flits)
Measured flits: 74814 75214 75218 75236 75291 75384 75471 75482 75576 75604 [...] (387 flits)
Class 0:
Remaining flits: 74814 75214 75384 75471 75482 75604 75667 75726 75766 75831 [...] (290 flits)
Measured flits: 74814 75214 75384 75471 75482 75604 75667 75726 75766 75831 [...] (290 flits)
Class 0:
Remaining flits: 74814 75384 75471 75667 75766 75866 75898 75900 75918 75924 [...] (217 flits)
Measured flits: 74814 75384 75471 75667 75766 75866 75898 75900 75918 75924 [...] (217 flits)
Class 0:
Remaining flits: 75924 75950 75970 76099 76115 76124 76130 76135 76198 76206 [...] (135 flits)
Measured flits: 75924 75950 75970 76099 76115 76124 76130 76135 76198 76206 [...] (135 flits)
Class 0:
Remaining flits: 75924 75950 76099 76115 76124 76130 76135 76216 76242 76243 [...] (86 flits)
Measured flits: 75924 75950 76099 76115 76124 76130 76135 76216 76242 76243 [...] (86 flits)
Class 0:
Remaining flits: 75924 76124 76135 76216 76282 76350 76405 76461 76476 76507 [...] (56 flits)
Measured flits: 75924 76124 76135 76216 76282 76350 76405 76461 76476 76507 [...] (56 flits)
Class 0:
Remaining flits: 76282 76461 76582 76613 76630 76674 76689 76764 76765 76767 [...] (29 flits)
Measured flits: 76282 76461 76582 76613 76630 76674 76689 76764 76765 76767 [...] (29 flits)
Class 0:
Remaining flits: 76282 76582 76630 76674 76689 76765 76767 76869 76880 76895 [...] (21 flits)
Measured flits: 76282 76582 76630 76674 76689 76765 76767 76869 76880 76895 [...] (21 flits)
Class 0:
Remaining flits: 76282 76674 76765 76767 76895 76941 76945 76985 76997 (9 flits)
Measured flits: 76282 76674 76765 76767 76895 76941 76945 76985 76997 (9 flits)
Class 0:
Remaining flits: 76282 76767 76997 (3 flits)
Measured flits: 76282 76767 76997 (3 flits)
Class 0:
Remaining flits: 76282 (1 flits)
Measured flits: 76282 (1 flits)
Class 0:
Remaining flits: 76282 (1 flits)
Measured flits: 76282 (1 flits)
Class 0:
Remaining flits: 76282 (1 flits)
Measured flits: 76282 (1 flits)
Class 0:
Remaining flits: 76282 (1 flits)
Measured flits: 76282 (1 flits)
Class 0:
Remaining flits: 76282 (1 flits)
Measured flits: 76282 (1 flits)
Class 0:
Remaining flits: 76282 (1 flits)
Measured flits: 76282 (1 flits)
Class 0:
Remaining flits: 76282 (1 flits)
Measured flits: 76282 (1 flits)
Class 0:
Remaining flits: 76282 (1 flits)
Measured flits: 76282 (1 flits)
Class 0:
Remaining flits: 76282 (1 flits)
Measured flits: 76282 (1 flits)
Class 0:
Remaining flits: 76282 (1 flits)
Measured flits: 76282 (1 flits)
Class 0:
Remaining flits: 76282 (1 flits)
Measured flits: 76282 (1 flits)
Class 0:
Remaining flits: 76282 (1 flits)
Measured flits: 76282 (1 flits)
Class 0:
Remaining flits: 76282 (1 flits)
Measured flits: 76282 (1 flits)
Class 0:
Remaining flits: 76282 (1 flits)
Measured flits: 76282 (1 flits)
Class 0:
Remaining flits: 76282 (1 flits)
Measured flits: 76282 (1 flits)
Class 0:
Remaining flits: 76282 (1 flits)
Measured flits: 76282 (1 flits)
Class 0:
Remaining flits: 76282 (1 flits)
Measured flits: 76282 (1 flits)
Class 0:
Remaining flits: 76282 (1 flits)
Measured flits: 76282 (1 flits)
Class 0:
Remaining flits: 76282 (1 flits)
Measured flits: 76282 (1 flits)
Class 0:
Remaining flits: 76282 (1 flits)
Measured flits: 76282 (1 flits)
Class 0:
Remaining flits: 76282 (1 flits)
Measured flits: 76282 (1 flits)
Class 0:
Remaining flits: 76282 (1 flits)
Measured flits: 76282 (1 flits)
Class 0:
Remaining flits: 76282 (1 flits)
Measured flits: 76282 (1 flits)
Class 0:
Remaining flits: 76282 (1 flits)
Measured flits: 76282 (1 flits)
Class 0:
Remaining flits: 76282 (1 flits)
Measured flits: 76282 (1 flits)
Class 0:
Remaining flits: 76282 (1 flits)
Measured flits: 76282 (1 flits)
Class 0:
Remaining flits: 76282 (1 flits)
Measured flits: 76282 (1 flits)
Class 0:
Remaining flits: 76282 (1 flits)
Measured flits: 76282 (1 flits)
Class 0:
Remaining flits: 76282 (1 flits)
Measured flits: 76282 (1 flits)
Class 0:
Remaining flits: 76282 (1 flits)
Measured flits: 76282 (1 flits)
Class 0:
Remaining flits: 76282 (1 flits)
Measured flits: 76282 (1 flits)
Class 0:
Remaining flits: 76282 (1 flits)
Measured flits: 76282 (1 flits)
Class 0:
Remaining flits: 76282 (1 flits)
Measured flits: 76282 (1 flits)
Class 0:
Remaining flits: 76282 (1 flits)
Measured flits: 76282 (1 flits)
Class 0:
Remaining flits: 76282 (1 flits)
Measured flits: 76282 (1 flits)
Class 0:
Remaining flits: 76282 (1 flits)
Measured flits: 76282 (1 flits)
Class 0:
Remaining flits: 76282 (1 flits)
Measured flits: 76282 (1 flits)
Class 0:
Remaining flits: 76282 (1 flits)
Measured flits: 76282 (1 flits)
Class 0:
Remaining flits: 76282 (1 flits)
Measured flits: 76282 (1 flits)
Class 0:
Remaining flits: 76282 (1 flits)
Measured flits: 76282 (1 flits)
Class 0:
Remaining flits: 76282 (1 flits)
Measured flits: 76282 (1 flits)
Class 0:
Remaining flits: 76282 (1 flits)
Measured flits: 76282 (1 flits)
Class 0:
Remaining flits: 76282 (1 flits)
Measured flits: 76282 (1 flits)
Class 0:
Remaining flits: 76282 (1 flits)
Measured flits: 76282 (1 flits)
Class 0:
Remaining flits: 76282 (1 flits)
Measured flits: 76282 (1 flits)
Class 0:
Remaining flits: 76282 (1 flits)
Measured flits: 76282 (1 flits)
Class 0:
Remaining flits: 76282 (1 flits)
Measured flits: 76282 (1 flits)
Class 0:
Remaining flits: 76282 (1 flits)
Measured flits: 76282 (1 flits)
Class 0:
Remaining flits: 76282 (1 flits)
Measured flits: 76282 (1 flits)
Class 0:
Remaining flits: 76282 (1 flits)
Measured flits: 76282 (1 flits)
Class 0:
Remaining flits: 76282 (1 flits)
Measured flits: 76282 (1 flits)
Class 0:
Remaining flits: 76282 (1 flits)
Measured flits: 76282 (1 flits)
Class 0:
Remaining flits: 76282 (1 flits)
Measured flits: 76282 (1 flits)
Class 0:
Remaining flits: 76282 (1 flits)
Measured flits: 76282 (1 flits)
Class 0:
Remaining flits: 76282 (1 flits)
Measured flits: 76282 (1 flits)
Class 0:
Remaining flits: 76282 (1 flits)
Measured flits: 76282 (1 flits)
Class 0:
Remaining flits: 76282 (1 flits)
Measured flits: 76282 (1 flits)
Class 0:
Remaining flits: 76282 (1 flits)
Measured flits: 76282 (1 flits)
Class 0:
Remaining flits: 76282 (1 flits)
Measured flits: 76282 (1 flits)
Class 0:
Remaining flits: 76282 (1 flits)
Measured flits: 76282 (1 flits)
Class 0:
Remaining flits: 76282 (1 flits)
Measured flits: 76282 (1 flits)
Class 0:
Remaining flits: 76282 (1 flits)
Measured flits: 76282 (1 flits)
Class 0:
Remaining flits: 76282 (1 flits)
Measured flits: 76282 (1 flits)
Class 0:
Remaining flits: 76282 (1 flits)
Measured flits: 76282 (1 flits)
Class 0:
Remaining flits: 76282 (1 flits)
Measured flits: 76282 (1 flits)
Class 0:
Remaining flits: 76282 (1 flits)
Measured flits: 76282 (1 flits)
Class 0:
Remaining flits: 76282 (1 flits)
Measured flits: 76282 (1 flits)
Class 0:
Remaining flits: 76282 (1 flits)
Measured flits: 76282 (1 flits)
Class 0:
Remaining flits: 76282 (1 flits)
Measured flits: 76282 (1 flits)
Class 0:
Remaining flits: 76282 (1 flits)
Measured flits: 76282 (1 flits)
Class 0:
Remaining flits: 76282 (1 flits)
Measured flits: 76282 (1 flits)
Class 0:
Remaining flits: 76282 (1 flits)
Measured flits: 76282 (1 flits)
Class 0:
Remaining flits: 76282 (1 flits)
Measured flits: 76282 (1 flits)
Class 0:
Remaining flits: 76282 (1 flits)
Measured flits: 76282 (1 flits)
Class 0:
Remaining flits: 76282 (1 flits)
Measured flits: 76282 (1 flits)
Class 0:
Remaining flits: 76282 (1 flits)
Measured flits: 76282 (1 flits)
Class 0:
Remaining flits: 76282 (1 flits)
Measured flits: 76282 (1 flits)
Class 0:
Remaining flits: 76282 (1 flits)
Measured flits: 76282 (1 flits)
Class 0:
Remaining flits: 76282 (1 flits)
Measured flits: 76282 (1 flits)
Class 0:
Remaining flits: 76282 (1 flits)
Measured flits: 76282 (1 flits)
Class 0:
Remaining flits: 76282 (1 flits)
Measured flits: 76282 (1 flits)
Class 0:
Remaining flits: 76282 (1 flits)
Measured flits: 76282 (1 flits)
Time taken is 7000 cycles
====== Traffic class 0 ======

Total number of flits generated = 76998, changed lanes = 76687
Overall minimum packet latency = 8 (1 samples)
Overall average packet latency = 121.797 (1 samples)
Overall maximum packet latency = 313 (1 samples)
Overall minimum network latency = 9 (1 samples)
Overall average network latency = 122.797 (1 samples)
Overall maximum network latency = 314 (1 samples)
Overall minimum flit latency = 9 (1 samples)
Overall average flit latency = 123.622 (1 samples)
Overall maximum flit latency = 314 (1 samples)
Overall minimum fragmentation = 0 (1 samples)
Overall average fragmentation = 0 (1 samples)
Overall maximum fragmentation = 0 (1 samples)
Overall minimum injected packet rate = 0.0386667 (1 samples)
Overall average injected packet rate = 0.0501523 (1 samples)
Overall maximum injected packet rate = 0.0596667 (1 samples)
Overall minimum accepted packet rate = 0.038 (1 samples)
Overall average accepted packet rate = 0.0502396 (1 samples)
Overall maximum accepted packet rate = 0.0606667 (1 samples)
Overall minimum injected flit rate = 0.0386667 (1 samples)
Overall average injected flit rate = 0.0501523 (1 samples)
Overall maximum injected flit rate = 0.0596667 (1 samples)
Overall minimum accepted flit rate = 0.038 (1 samples)
Overall average accepted flit rate = 0.0502396 (1 samples)
Overall maximum accepted flit rate = 0.0606667 (1 samples)
Overall average injected packet size = 1 (1 samples)
Overall average accepted packet size = 1 (1 samples)
Overall average hops = 8.99455 (1 samples)
Overall throughput of the network (flits/cycle) = 25.6657
Overall throughput of the network (packets/cycle) = 25.6657
Total run time 277.479
