make: Nothing to be done for 'all'.
Master: Running timer....
Master: Running SRC....
BEGIN Configuration File: ./examples/bitrev
// Topology

topology = torus;
k = 8;
n = 2;

// Routing
routing_function = dim_order;

// Flow control
num_vcs     = 4;
vc_buf_size = 4;
wait_for_tail_credit = 0;

// Router architecture
vc_allocator = islip;
sw_allocator = islip;
alloc_iters  = 1;

credit_delay   = 1;
routing_delay  = 1;
vc_alloc_delay = 1;
sw_alloc_delay = 1;

input_speedup     = 1;
output_speedup    = 1;
internal_speedup  = 1.0;

vc_busy_when_full = 0;

// Traffic
traffic = uniform;
packet_size = 1;

// Simulation
sim_type = throughput;

injection_rate = 0.05;

END Configuration File: ./examples/bitrev
===== Time: 1000 =====
Class 0:
Minimum packet latency = 7
Average packet latency = 37.5061
Maximum packet latency = 123
Minimum network latency = 8
Average network latency = 38.5061
Maximum network latency = 124
Slowest packet = 1163
Minimum flit latency = 8
Average flit latency = 38.5061
Maximum flit latency = 124
Slowest flit = 1163
Minimum fragmentation = 0
Average fragmentation = 0
Maximum fragmentation = 0
Minimum injected packet rate = 0.034 (at node 9)
Average injected packet rate = 0.0495312
Maximum injected packet rate = 0.064 (at node 41)
Minimum accepted packet rate = 0.035 (at node 35)
Average accepted packet rate = 0.0475156
Maximum accepted packet rate = 0.062 (at node 27)
Minimum injected flit rate = 0.034 (at node 9)
Average injected flit rate = 0.0495312
Maximum injected flit rate = 0.064 (at node 41)
Minimum accepted flit rate = 0.035 (at node 35)
Average accepted flit rate = 0.0475156
Maximum accepted flit rate = 0.062 (at node 27)
Total number of injected packets = 3170
Total number of injected flits = 3170
Average injected packet length = 1
Total number of accepted packets = 3041
Total number of accepted flits = 3041
Average accepted packet length = 1
Total in-flight flits = 129 (0 measured)
===== Time: 2000 =====
Class 0:
Minimum packet latency = 7
Average packet latency = 37.7812
Maximum packet latency = 206
Minimum network latency = 8
Average network latency = 38.7812
Maximum network latency = 207
Slowest packet = 5574
Minimum flit latency = 8
Average flit latency = 38.7812
Maximum flit latency = 207
Slowest flit = 5574
Minimum fragmentation = 0
Average fragmentation = 0
Maximum fragmentation = 0
Minimum injected packet rate = 0.04 (at node 9)
Average injected packet rate = 0.0495469
Maximum injected packet rate = 0.0595 (at node 37)
Minimum accepted packet rate = 0.039 (at node 46)
Average accepted packet rate = 0.0486953
Maximum accepted packet rate = 0.061 (at node 49)
Minimum injected flit rate = 0.04 (at node 9)
Average injected flit rate = 0.0495469
Maximum injected flit rate = 0.0595 (at node 37)
Minimum accepted flit rate = 0.039 (at node 46)
Average accepted flit rate = 0.0486953
Maximum accepted flit rate = 0.061 (at node 49)
Total number of injected packets = 6342
Total number of injected flits = 6342
Average injected packet length = 1
Total number of accepted packets = 6233
Total number of accepted flits = 6233
Average accepted packet length = 1
Total in-flight flits = 109 (0 measured)
===== Time: 3000 =====
Class 0:
Minimum packet latency = 7
Average packet latency = 37.982
Maximum packet latency = 209
Minimum network latency = 8
Average network latency = 38.982
Maximum network latency = 210
Slowest packet = 7329
Minimum flit latency = 8
Average flit latency = 38.982
Maximum flit latency = 210
Slowest flit = 7329
Minimum fragmentation = 0
Average fragmentation = 0
Maximum fragmentation = 0
Minimum injected packet rate = 0.035 (at node 14)
Average injected packet rate = 0.05
Maximum injected packet rate = 0.07 (at node 47)
Minimum accepted packet rate = 0.034 (at node 45)
Average accepted packet rate = 0.0495781
Maximum accepted packet rate = 0.065 (at node 11)
Minimum injected flit rate = 0.035 (at node 14)
Average injected flit rate = 0.05
Maximum injected flit rate = 0.07 (at node 47)
Minimum accepted flit rate = 0.034 (at node 45)
Average accepted flit rate = 0.0495781
Maximum accepted flit rate = 0.065 (at node 11)
Total number of injected packets = 3200
Total number of injected flits = 3200
Average injected packet length = 1
Total number of accepted packets = 3173
Total number of accepted flits = 3173
Average accepted packet length = 1
Total in-flight flits = 136 (0 measured)
===== Time: 4000 =====
Class 0:
Minimum packet latency = 7
Average packet latency = 38.2046
Maximum packet latency = 324
Minimum network latency = 8
Average network latency = 39.2046
Maximum network latency = 325
Slowest packet = 11035
Minimum flit latency = 8
Average flit latency = 39.601
Maximum flit latency = 325
Slowest flit = 11035
Minimum fragmentation = 0
Average fragmentation = 0
Maximum fragmentation = 0
Minimum injected packet rate = 0.035 (at node 52)
Average injected packet rate = 0.05125
Maximum injected packet rate = 0.066 (at node 34)
Minimum accepted packet rate = 0.031 (at node 21)
Average accepted packet rate = 0.0514531
Maximum accepted packet rate = 0.069 (at node 28)
Minimum injected flit rate = 0.035 (at node 52)
Average injected flit rate = 0.05125
Maximum injected flit rate = 0.066 (at node 34)
Minimum accepted flit rate = 0.031 (at node 21)
Average accepted flit rate = 0.0514531
Maximum accepted flit rate = 0.069 (at node 28)
Total number of injected packets = 3280
Total number of injected flits = 3280
Average injected packet length = 1
Total number of accepted packets = 3293
Total number of accepted flits = 3293
Average accepted packet length = 1
Total in-flight flits = 123 (123 measured)
===== Time: 5000 =====
Class 0:
Minimum packet latency = 7
Average packet latency = 38.3399
Maximum packet latency = 324
Minimum network latency = 8
Average network latency = 39.3399
Maximum network latency = 325
Slowest packet = 11035
Minimum flit latency = 8
Average flit latency = 39.5382
Maximum flit latency = 325
Slowest flit = 11035
Minimum fragmentation = 0
Average fragmentation = 0
Maximum fragmentation = 0
Minimum injected packet rate = 0.038 (at node 52)
Average injected packet rate = 0.0505469
Maximum injected packet rate = 0.0635 (at node 43)
Minimum accepted packet rate = 0.038 (at node 22)
Average accepted packet rate = 0.0507031
Maximum accepted packet rate = 0.0635 (at node 38)
Minimum injected flit rate = 0.038 (at node 52)
Average injected flit rate = 0.0505469
Maximum injected flit rate = 0.0635 (at node 43)
Minimum accepted flit rate = 0.038 (at node 22)
Average accepted flit rate = 0.0507031
Maximum accepted flit rate = 0.0635 (at node 38)
Total number of injected packets = 6470
Total number of injected flits = 6470
Average injected packet length = 1
Total number of accepted packets = 6490
Total number of accepted flits = 6490
Average accepted packet length = 1
Total in-flight flits = 116 (116 measured)
===== Time: 6000 =====
Class 0:
Minimum packet latency = 7
Average packet latency = 38.0764
Maximum packet latency = 324
Minimum network latency = 8
Average network latency = 39.0764
Maximum network latency = 325
Slowest packet = 11035
Minimum flit latency = 8
Average flit latency = 39.2128
Maximum flit latency = 325
Slowest flit = 11035
Minimum fragmentation = 0
Average fragmentation = 0
Maximum fragmentation = 0
Minimum injected packet rate = 0.039 (at node 53)
Average injected packet rate = 0.0505
Maximum injected packet rate = 0.057 (at node 20)
Minimum accepted packet rate = 0.0393333 (at node 22)
Average accepted packet rate = 0.0505208
Maximum accepted packet rate = 0.06 (at node 23)
Minimum injected flit rate = 0.039 (at node 53)
Average injected flit rate = 0.0505
Maximum injected flit rate = 0.057 (at node 20)
Minimum accepted flit rate = 0.0393333 (at node 22)
Average accepted flit rate = 0.0505208
Maximum accepted flit rate = 0.06 (at node 23)
Total number of injected packets = 9696
Total number of injected flits = 9696
Average injected packet length = 1
Total number of accepted packets = 9700
Total number of accepted flits = 9700
Average accepted packet length = 1
Total in-flight flits = 132 (132 measured)
Draining remaining packets ...
Class 0:
Remaining flits: 19011 19077 19084 19087 19088 19089 19092 19097 19105 19116 [...] (90 flits)
Measured flits: 19011 19077 19084 19087 19088 19089 19092 19097 19105 19116 [...] (90 flits)
Class 0:
Remaining flits: 19011 19077 19084 19092 19118 19122 19131 19139 19140 19142 [...] (58 flits)
Measured flits: 19011 19077 19084 19092 19118 19122 19131 19139 19140 19142 [...] (58 flits)
Class 0:
Remaining flits: 19011 19139 19154 19160 19180 19183 19184 19186 19189 19195 [...] (31 flits)
Measured flits: 19011 19139 19154 19160 19180 19183 19184 19186 19189 19195 [...] (31 flits)
Class 0:
Remaining flits: 19197 19199 19200 19208 19214 19215 19219 19223 19224 19226 [...] (16 flits)
Measured flits: 19197 19199 19200 19208 19214 19215 19219 19223 19224 19226 [...] (16 flits)
Class 0:
Remaining flits: 19199 19200 19219 19223 19226 19229 19236 (7 flits)
Measured flits: 19199 19200 19219 19223 19226 19229 19236 (7 flits)
Class 0:
Remaining flits: 19200 19219 19223 (3 flits)
Measured flits: 19200 19219 19223 (3 flits)
Class 0:
Remaining flits: 19200 19219 (2 flits)
Measured flits: 19200 19219 (2 flits)
Class 0:
Remaining flits: 19200 19219 (2 flits)
Measured flits: 19200 19219 (2 flits)
Class 0:
Remaining flits: 19200 19219 (2 flits)
Measured flits: 19200 19219 (2 flits)
Class 0:
Remaining flits: 19200 19219 (2 flits)
Measured flits: 19200 19219 (2 flits)
Class 0:
Remaining flits: 19200 19219 (2 flits)
Measured flits: 19200 19219 (2 flits)
Class 0:
Remaining flits: 19200 19219 (2 flits)
Measured flits: 19200 19219 (2 flits)
Class 0:
Remaining flits: 19200 19219 (2 flits)
Measured flits: 19200 19219 (2 flits)
Class 0:
Remaining flits: 19200 19219 (2 flits)
Measured flits: 19200 19219 (2 flits)
Class 0:
Remaining flits: 19200 19219 (2 flits)
Measured flits: 19200 19219 (2 flits)
Class 0:
Remaining flits: 19200 19219 (2 flits)
Measured flits: 19200 19219 (2 flits)
Class 0:
Remaining flits: 19200 19219 (2 flits)
Measured flits: 19200 19219 (2 flits)
Class 0:
Remaining flits: 19200 19219 (2 flits)
Measured flits: 19200 19219 (2 flits)
Class 0:
Remaining flits: 19200 19219 (2 flits)
Measured flits: 19200 19219 (2 flits)
Class 0:
Remaining flits: 19200 19219 (2 flits)
Measured flits: 19200 19219 (2 flits)
Class 0:
Remaining flits: 19200 19219 (2 flits)
Measured flits: 19200 19219 (2 flits)
Class 0:
Remaining flits: 19200 19219 (2 flits)
Measured flits: 19200 19219 (2 flits)
Class 0:
Remaining flits: 19200 19219 (2 flits)
Measured flits: 19200 19219 (2 flits)
Class 0:
Remaining flits: 19200 19219 (2 flits)
Measured flits: 19200 19219 (2 flits)
Class 0:
Remaining flits: 19200 19219 (2 flits)
Measured flits: 19200 19219 (2 flits)
Class 0:
Remaining flits: 19200 19219 (2 flits)
Measured flits: 19200 19219 (2 flits)
Class 0:
Remaining flits: 19200 19219 (2 flits)
Measured flits: 19200 19219 (2 flits)
Class 0:
Remaining flits: 19200 19219 (2 flits)
Measured flits: 19200 19219 (2 flits)
Class 0:
Remaining flits: 19200 19219 (2 flits)
Measured flits: 19200 19219 (2 flits)
Class 0:
Remaining flits: 19200 19219 (2 flits)
Measured flits: 19200 19219 (2 flits)
Class 0:
Remaining flits: 19200 19219 (2 flits)
Measured flits: 19200 19219 (2 flits)
Class 0:
Remaining flits: 19200 19219 (2 flits)
Measured flits: 19200 19219 (2 flits)
Class 0:
Remaining flits: 19200 19219 (2 flits)
Measured flits: 19200 19219 (2 flits)
Class 0:
Remaining flits: 19200 19219 (2 flits)
Measured flits: 19200 19219 (2 flits)
Class 0:
Remaining flits: 19200 19219 (2 flits)
Measured flits: 19200 19219 (2 flits)
Class 0:
Remaining flits: 19200 19219 (2 flits)
Measured flits: 19200 19219 (2 flits)
Class 0:
Remaining flits: 19200 19219 (2 flits)
Measured flits: 19200 19219 (2 flits)
Class 0:
Remaining flits: 19200 19219 (2 flits)
Measured flits: 19200 19219 (2 flits)
Class 0:
Remaining flits: 19200 19219 (2 flits)
Measured flits: 19200 19219 (2 flits)
Class 0:
Remaining flits: 19200 19219 (2 flits)
Measured flits: 19200 19219 (2 flits)
Class 0:
Remaining flits: 19200 19219 (2 flits)
Measured flits: 19200 19219 (2 flits)
Class 0:
Remaining flits: 19200 19219 (2 flits)
Measured flits: 19200 19219 (2 flits)
Class 0:
Remaining flits: 19200 19219 (2 flits)
Measured flits: 19200 19219 (2 flits)
Class 0:
Remaining flits: 19200 19219 (2 flits)
Measured flits: 19200 19219 (2 flits)
Class 0:
Remaining flits: 19200 19219 (2 flits)
Measured flits: 19200 19219 (2 flits)
Class 0:
Remaining flits: 19200 19219 (2 flits)
Measured flits: 19200 19219 (2 flits)
Class 0:
Remaining flits: 19200 19219 (2 flits)
Measured flits: 19200 19219 (2 flits)
Class 0:
Remaining flits: 19200 19219 (2 flits)
Measured flits: 19200 19219 (2 flits)
Class 0:
Remaining flits: 19200 19219 (2 flits)
Measured flits: 19200 19219 (2 flits)
Class 0:
Remaining flits: 19200 19219 (2 flits)
Measured flits: 19200 19219 (2 flits)
Class 0:
Remaining flits: 19200 19219 (2 flits)
Measured flits: 19200 19219 (2 flits)
Class 0:
Remaining flits: 19200 19219 (2 flits)
Measured flits: 19200 19219 (2 flits)
Class 0:
Remaining flits: 19200 19219 (2 flits)
Measured flits: 19200 19219 (2 flits)
Class 0:
Remaining flits: 19200 19219 (2 flits)
Measured flits: 19200 19219 (2 flits)
Class 0:
Remaining flits: 19200 19219 (2 flits)
Measured flits: 19200 19219 (2 flits)
Class 0:
Remaining flits: 19200 19219 (2 flits)
Measured flits: 19200 19219 (2 flits)
Class 0:
Remaining flits: 19200 19219 (2 flits)
Measured flits: 19200 19219 (2 flits)
Class 0:
Remaining flits: 19200 19219 (2 flits)
Measured flits: 19200 19219 (2 flits)
Class 0:
Remaining flits: 19200 19219 (2 flits)
Measured flits: 19200 19219 (2 flits)
Class 0:
Remaining flits: 19200 19219 (2 flits)
Measured flits: 19200 19219 (2 flits)
Class 0:
Remaining flits: 19200 19219 (2 flits)
Measured flits: 19200 19219 (2 flits)
Class 0:
Remaining flits: 19200 19219 (2 flits)
Measured flits: 19200 19219 (2 flits)
Class 0:
Remaining flits: 19200 19219 (2 flits)
Measured flits: 19200 19219 (2 flits)
Class 0:
Remaining flits: 19200 19219 (2 flits)
Measured flits: 19200 19219 (2 flits)
Class 0:
Remaining flits: 19200 19219 (2 flits)
Measured flits: 19200 19219 (2 flits)
Class 0:
Remaining flits: 19200 19219 (2 flits)
Measured flits: 19200 19219 (2 flits)
Class 0:
Remaining flits: 19200 19219 (2 flits)
Measured flits: 19200 19219 (2 flits)
Class 0:
Remaining flits: 19200 19219 (2 flits)
Measured flits: 19200 19219 (2 flits)
Class 0:
Remaining flits: 19200 19219 (2 flits)
Measured flits: 19200 19219 (2 flits)
Class 0:
Remaining flits: 19200 19219 (2 flits)
Measured flits: 19200 19219 (2 flits)
Class 0:
Remaining flits: 19200 19219 (2 flits)
Measured flits: 19200 19219 (2 flits)
Class 0:
Remaining flits: 19200 19219 (2 flits)
Measured flits: 19200 19219 (2 flits)
Class 0:
Remaining flits: 19200 19219 (2 flits)
Measured flits: 19200 19219 (2 flits)
Class 0:
Remaining flits: 19200 19219 (2 flits)
Measured flits: 19200 19219 (2 flits)
Class 0:
Remaining flits: 19200 19219 (2 flits)
Measured flits: 19200 19219 (2 flits)
Class 0:
Remaining flits: 19200 19219 (2 flits)
Measured flits: 19200 19219 (2 flits)
Class 0:
Remaining flits: 19200 19219 (2 flits)
Measured flits: 19200 19219 (2 flits)
Class 0:
Remaining flits: 19200 19219 (2 flits)
Measured flits: 19200 19219 (2 flits)
Class 0:
Remaining flits: 19200 19219 (2 flits)
Measured flits: 19200 19219 (2 flits)
Class 0:
Remaining flits: 19200 19219 (2 flits)
Measured flits: 19200 19219 (2 flits)
Class 0:
Remaining flits: 19200 19219 (2 flits)
Measured flits: 19200 19219 (2 flits)
Class 0:
Remaining flits: 19200 19219 (2 flits)
Measured flits: 19200 19219 (2 flits)
Class 0:
Remaining flits: 19200 19219 (2 flits)
Measured flits: 19200 19219 (2 flits)
Class 0:
Remaining flits: 19200 19219 (2 flits)
Measured flits: 19200 19219 (2 flits)
Class 0:
Remaining flits: 19200 19219 (2 flits)
Measured flits: 19200 19219 (2 flits)
Class 0:
Remaining flits: 19200 19219 (2 flits)
Measured flits: 19200 19219 (2 flits)
Class 0:
Remaining flits: 19200 19219 (2 flits)
Measured flits: 19200 19219 (2 flits)
Class 0:
Remaining flits: 19200 19219 (2 flits)
Measured flits: 19200 19219 (2 flits)
Class 0:
Remaining flits: 19200 19219 (2 flits)
Measured flits: 19200 19219 (2 flits)
Class 0:
Remaining flits: 19200 19219 (2 flits)
Measured flits: 19200 19219 (2 flits)
Class 0:
Remaining flits: 19200 19219 (2 flits)
Measured flits: 19200 19219 (2 flits)
Class 0:
Remaining flits: 19200 19219 (2 flits)
Measured flits: 19200 19219 (2 flits)
Class 0:
Remaining flits: 19200 19219 (2 flits)
Measured flits: 19200 19219 (2 flits)
Class 0:
Remaining flits: 19200 19219 (2 flits)
Measured flits: 19200 19219 (2 flits)
Class 0:
Remaining flits: 19200 19219 (2 flits)
Measured flits: 19200 19219 (2 flits)
Class 0:
Remaining flits: 19200 19219 (2 flits)
Measured flits: 19200 19219 (2 flits)
Class 0:
Remaining flits: 19200 19219 (2 flits)
Measured flits: 19200 19219 (2 flits)
Class 0:
Remaining flits: 19200 19219 (2 flits)
Measured flits: 19200 19219 (2 flits)
Class 0:
Remaining flits: 19200 19219 (2 flits)
Measured flits: 19200 19219 (2 flits)
Class 0:
Remaining flits: 19200 19219 (2 flits)
Measured flits: 19200 19219 (2 flits)
Class 0:
Remaining flits: 19200 19219 (2 flits)
Measured flits: 19200 19219 (2 flits)
Time taken is 7000 cycles
====== Traffic class 0 ======

Total number of flits generated = 19238, changed lanes = 18830
Overall minimum packet latency = 7 (1 samples)
Overall average packet latency = 38.1485 (1 samples)
Overall maximum packet latency = 324 (1 samples)
Overall minimum network latency = 8 (1 samples)
Overall average network latency = 39.1485 (1 samples)
Overall maximum network latency = 325 (1 samples)
Overall minimum flit latency = 8 (1 samples)
Overall average flit latency = 39.2821 (1 samples)
Overall maximum flit latency = 325 (1 samples)
Overall minimum fragmentation = 0 (1 samples)
Overall average fragmentation = 0 (1 samples)
Overall maximum fragmentation = 0 (1 samples)
Overall minimum injected packet rate = 0.039 (1 samples)
Overall average injected packet rate = 0.0505 (1 samples)
Overall maximum injected packet rate = 0.057 (1 samples)
Overall minimum accepted packet rate = 0.0393333 (1 samples)
Overall average accepted packet rate = 0.0505208 (1 samples)
Overall maximum accepted packet rate = 0.06 (1 samples)
Overall minimum injected flit rate = 0.039 (1 samples)
Overall average injected flit rate = 0.0505 (1 samples)
Overall maximum injected flit rate = 0.057 (1 samples)
Overall minimum accepted flit rate = 0.0393333 (1 samples)
Overall average accepted flit rate = 0.0505208 (1 samples)
Overall maximum accepted flit rate = 0.06 (1 samples)
Overall average injected packet size = 1 (1 samples)
Overall average accepted packet size = 1 (1 samples)
Overall average hops = 4.99247 (1 samples)
Overall throughput of the network (flits/cycle) = 6.412
Overall throughput of the network (packets/cycle) = 6.412
Total run time 33.1088
