make: Nothing to be done for 'all'.
Master: Running timer....
Master: Running SRC....
BEGIN Configuration File: ./examples/mesh88_lat_blackscholes
// $Id$

topology = mesh;
k = 8;
n = 2;

// Routing
routing_function = dor;

// Flow control
num_vcs     = 1;
vc_buf_size = 4;
wait_for_tail_credit = 1;

// Router architecture
vc_allocator = islip;
sw_allocator = islip;
alloc_iters  = 1;

credit_delay   = 1;
routing_delay  = 1;
vc_alloc_delay = 1;
sw_alloc_delay = 1;

input_speedup     = 1;
output_speedup    = 1;
internal_speedup  = 1.0;

vc_busy_when_full = 0;

// Traffic
workload=netrace({/home/sarab/Downloads/BookSim_Benchmark_files/ferret_64c_simmedium.tra.bz2,100000000,1,2,1,1,0);

// Simulation
sim_type = workload;

END Configuration File: ./examples/mesh88_lat_blackscholes
Warming up...
===== Time: 10000 =====
Class 0:
Packets read from trace = 160 of 100000000 (0%)
Future packets = 1
Waiting packets = 0
Stalled packets = 154
Packets pending injection = 0
Packets in flight = 2
Minimum packet latency = 61
Average packet latency = 65
Maximum packet latency = 73
Minimum network latency = 60
Average network latency = 64.6667
Maximum network latency = 73
Slowest packet = 0
Minimum flit latency = 60
Average flit latency = 79.8182
Maximum flit latency = 110
Slowest flit = 9
Minimum fragmentation = 0
Average fragmentation = 0
Maximum fragmentation = 0
Minimum injected packet rate = 0 (at node 0)
Average injected packet rate = 7.8125e-06
Maximum injected packet rate = 0.0002 (at node 27)
Minimum accepted packet rate = 0 (at node 0)
Average accepted packet rate = 4.6875e-06
Maximum accepted packet rate = 0.0002 (at node 27)
Minimum injected flit rate = 0 (at node 0)
Average injected flit rate = 2.03125e-05
Maximum injected flit rate = 0.0006 (at node 27)
Minimum accepted flit rate = 0 (at node 0)
Average accepted flit rate = 1.71875e-05
Maximum accepted flit rate = 0.0005 (at node 2)
Total number of injected packets = 5
Total number of injected flits = 13
Average injected packet length = 2.6
Total number of accepted packets = 3
Total number of accepted flits = 11
Average accepted packet length = 3.66667
Total in-flight flits = 2 (0 measured)
===== Time: 20000 =====
Class 0:
Packets read from trace = 268 of 100000000 (0%)
Future packets = 1
Waiting packets = 0
Stalled packets = 262
Packets pending injection = 0
Packets in flight = 2
Minimum packet latency = 61
Average packet latency = 65
Maximum packet latency = 73
Minimum network latency = 60
Average network latency = 64.6667
Maximum network latency = 73
Slowest packet = 0
Minimum flit latency = 60
Average flit latency = 79.8182
Maximum flit latency = 110
Slowest flit = 9
Minimum fragmentation = 0
Average fragmentation = 0
Maximum fragmentation = 0
Minimum injected packet rate = 0 (at node 0)
Average injected packet rate = 3.90625e-06
Maximum injected packet rate = 0.0001 (at node 27)
Minimum accepted packet rate = 0 (at node 0)
Average accepted packet rate = 2.34375e-06
Maximum accepted packet rate = 0.0001 (at node 27)
Minimum injected flit rate = 0 (at node 0)
Average injected flit rate = 1.01562e-05
Maximum injected flit rate = 0.0003 (at node 27)
Minimum accepted flit rate = 0 (at node 0)
Average accepted flit rate = 8.59375e-06
Maximum accepted flit rate = 0.00025 (at node 2)
Total number of injected packets = 5
Total number of injected flits = 13
Average injected packet length = 2.6
Total number of accepted packets = 3
Total number of accepted flits = 11
Average accepted packet length = 3.66667
Total in-flight flits = 2 (0 measured)
===== Time: 30000 =====
Class 0:
Packets read from trace = 496 of 100000000 (0%)
Future packets = 1
Waiting packets = 0
Stalled packets = 488
Packets pending injection = 0
Packets in flight = 4
Minimum packet latency = 61
Average packet latency = 65
Maximum packet latency = 73
Minimum network latency = 60
Average network latency = 64.6667
Maximum network latency = 73
Slowest packet = 0
Minimum flit latency = 60
Average flit latency = 84.4
Maximum flit latency = 110
Slowest flit = 9
Minimum fragmentation = 0
Average fragmentation = 0
Maximum fragmentation = 0
Minimum injected packet rate = 0 (at node 0)
Average injected packet rate = 3.64583e-06
Maximum injected packet rate = 6.66667e-05 (at node 27)
Minimum accepted packet rate = 0 (at node 0)
Average accepted packet rate = 1.5625e-06
Maximum accepted packet rate = 6.66667e-05 (at node 27)
Minimum injected flit rate = 0 (at node 0)
Average injected flit rate = 1.19792e-05
Maximum injected flit rate = 0.0002 (at node 27)
Minimum accepted flit rate = 0 (at node 0)
Average accepted flit rate = 7.8125e-06
Maximum accepted flit rate = 0.000166667 (at node 2)
Total number of injected packets = 7
Total number of injected flits = 23
Average injected packet length = 3.28571
Total number of accepted packets = 3
Total number of accepted flits = 15
Average accepted packet length = 5
Total in-flight flits = 8 (0 measured)
Warmup ends after 30000 cycles.
Beginning measurements...
===== Time: 40000 =====
Class 0:
Packets read from trace = 739 of 100000000 (0%)
Future packets = 1
Waiting packets = 0
Stalled packets = 730
Packets pending injection = 0
Packets in flight = 4
Minimum packet latency = nan
Average packet latency = -nan
Maximum packet latency = -nan
Minimum network latency = nan
Average network latency = -nan
Maximum network latency = -nan
Slowest packet = -1
Minimum flit latency = 108
Average flit latency = 4394.4
Maximum flit latency = 21534
Slowest flit = 12
Minimum fragmentation = nan
Average fragmentation = -nan
Maximum fragmentation = -nan
Minimum injected packet rate = 0 (at node 0)
Average injected packet rate = 1.5625e-06
Maximum injected packet rate = 0.0001 (at node 33)
Minimum accepted packet rate = 0 (at node 0)
Average accepted packet rate = 1.5625e-06
Maximum accepted packet rate = 0.0001 (at node 5)
Minimum injected flit rate = 0 (at node 0)
Average injected flit rate = 7.8125e-06
Maximum injected flit rate = 0.0005 (at node 33)
Minimum accepted flit rate = 0 (at node 0)
Average accepted flit rate = 7.8125e-06
Maximum accepted flit rate = 0.0005 (at node 5)
Total number of injected packets = 1
Total number of injected flits = 5
Average injected packet length = 5
Total number of accepted packets = 1
Total number of accepted flits = 5
Average accepted packet length = 5
Total in-flight flits = 8 (1 measured)
===== Time: 50000 =====
Class 0:
Packets read from trace = 909 of 100000000 (0%)
Future packets = 1
Waiting packets = 0
Stalled packets = 898
Packets pending injection = 0
Packets in flight = 5
Minimum packet latency = 15919
Average packet latency = 15919
Maximum packet latency = 15919
Minimum network latency = 15915
Average network latency = 15915
Maximum network latency = 15915
Slowest packet = 7
Minimum flit latency = 108
Average flit latency = 6313
Maximum flit latency = 21534
Slowest flit = 12
Minimum fragmentation = 15803
Average fragmentation = 15803
Maximum fragmentation = 15803
Minimum injected packet rate = 0 (at node 0)
Average injected packet rate = 2.34375e-06
Maximum injected packet rate = 0.0001 (at node 33)
Minimum accepted packet rate = 0 (at node 0)
Average accepted packet rate = 1.5625e-06
Maximum accepted packet rate = 0.0001 (at node 5)
Minimum injected flit rate = 0 (at node 0)
Average injected flit rate = 1.09375e-05
Maximum injected flit rate = 0.00045 (at node 33)
Minimum accepted flit rate = 0 (at node 0)
Average accepted flit rate = 4.6875e-06
Maximum accepted flit rate = 0.0003 (at node 5)
Total number of injected packets = 3
Total number of injected flits = 14
Average injected packet length = 4.66667
Total number of accepted packets = 2
Total number of accepted flits = 6
Average accepted packet length = 3
Total in-flight flits = 17 (10 measured)
===== Time: 60000 =====
Class 0:
Packets read from trace = 1084 of 100000000 (0%)
Future packets = 1
Waiting packets = 0
Stalled packets = 1073
Packets pending injection = 0
Packets in flight = 5
Minimum packet latency = 15919
Average packet latency = 15919
Maximum packet latency = 15919
Minimum network latency = 15915
Average network latency = 15915
Maximum network latency = 15915
Slowest packet = 7
Minimum flit latency = 108
Average flit latency = 6313
Maximum flit latency = 21534
Slowest flit = 12
Minimum fragmentation = 15803
Average fragmentation = 15803
Maximum fragmentation = 15803
Minimum injected packet rate = 0 (at node 0)
Average injected packet rate = 1.5625e-06
Maximum injected packet rate = 6.66667e-05 (at node 33)
Minimum accepted packet rate = 0 (at node 0)
Average accepted packet rate = 1.04167e-06
Maximum accepted packet rate = 6.66667e-05 (at node 5)
Minimum injected flit rate = 0 (at node 0)
Average injected flit rate = 7.29167e-06
Maximum injected flit rate = 0.0003 (at node 33)
Minimum accepted flit rate = 0 (at node 0)
Average accepted flit rate = 3.125e-06
Maximum accepted flit rate = 0.0002 (at node 5)
Total number of injected packets = 3
Total number of injected flits = 14
Average injected packet length = 4.66667
Total number of accepted packets = 2
Total number of accepted flits = 6
Average accepted packet length = 3
Total in-flight flits = 17 (10 measured)
===== Time: 70000 =====
Class 0:
Packets read from trace = 1174 of 100000000 (0%)
Future packets = 1
Waiting packets = 0
Stalled packets = 1162
Packets pending injection = 0
Packets in flight = 6
Minimum packet latency = 15919
Average packet latency = 15919
Maximum packet latency = 15919
Minimum network latency = 15915
Average network latency = 15915
Maximum network latency = 15915
Slowest packet = 7
Minimum flit latency = 108
Average flit latency = 6313
Maximum flit latency = 21534
Slowest flit = 12
Minimum fragmentation = 15803
Average fragmentation = 15803
Maximum fragmentation = 15803
Minimum injected packet rate = 0 (at node 0)
Average injected packet rate = 1.5625e-06
Maximum injected packet rate = 5e-05 (at node 33)
Minimum accepted packet rate = 0 (at node 0)
Average accepted packet rate = 7.8125e-07
Maximum accepted packet rate = 5e-05 (at node 5)
Minimum injected flit rate = 0 (at node 0)
Average injected flit rate = 6.64062e-06
Maximum injected flit rate = 0.000225 (at node 33)
Minimum accepted flit rate = 0 (at node 0)
Average accepted flit rate = 2.34375e-06
Maximum accepted flit rate = 0.00015 (at node 5)
Total number of injected packets = 4
Total number of injected flits = 17
Average injected packet length = 4.25
Total number of accepted packets = 2
Total number of accepted flits = 6
Average accepted packet length = 3
Total in-flight flits = 22 (15 measured)
===== Time: 80000 =====
Class 0:
Packets read from trace = 1359 of 100000000 (0%)
Future packets = 1
Waiting packets = 0
Stalled packets = 1345
Packets pending injection = 0
Packets in flight = 6
Minimum packet latency = 5982
Average packet latency = 10950.5
Maximum packet latency = 15919
Minimum network latency = 5982
Average network latency = 10948.5
Maximum network latency = 15915
Slowest packet = 7
Minimum flit latency = 46
Average flit latency = 17323
Maximum flit latency = 47754
Slowest flit = 19
Minimum fragmentation = 5932
Average fragmentation = 10867.5
Maximum fragmentation = 15803
Minimum injected packet rate = 0 (at node 0)
Average injected packet rate = 1.875e-06
Maximum injected packet rate = 4e-05 (at node 33)
Minimum accepted packet rate = 0 (at node 0)
Average accepted packet rate = 1.25e-06
Maximum accepted packet rate = 4e-05 (at node 5)
Minimum injected flit rate = 0 (at node 0)
Average injected flit rate = 9.0625e-06
Maximum injected flit rate = 0.0002 (at node 38)
Minimum accepted flit rate = 0 (at node 0)
Average accepted flit rate = 5e-06
Maximum accepted flit rate = 0.00012 (at node 5)
Total number of injected packets = 6
Total number of injected flits = 29
Average injected packet length = 4.83333
Total number of accepted packets = 4
Total number of accepted flits = 16
Average accepted packet length = 4
Total in-flight flits = 22 (20 measured)
===== Time: 90000 =====
Class 0:
Packets read from trace = 1620 of 100000000 (0%)
Future packets = 1
Waiting packets = 0
Stalled packets = 1602
Packets pending injection = 1
Packets in flight = 9
Minimum packet latency = 5982
Average packet latency = 10950.5
Maximum packet latency = 15919
Minimum network latency = 5982
Average network latency = 10948.5
Maximum network latency = 15915
Slowest packet = 7
Minimum flit latency = 46
Average flit latency = 13873.1
Maximum flit latency = 47754
Slowest flit = 19
Minimum fragmentation = 5932
Average fragmentation = 10867.5
Maximum fragmentation = 15803
Minimum injected packet rate = 0 (at node 0)
Average injected packet rate = 2.34375e-06
Maximum injected packet rate = 3.33333e-05 (at node 1)
Minimum accepted packet rate = 0 (at node 0)
Average accepted packet rate = 1.04167e-06
Maximum accepted packet rate = 3.33333e-05 (at node 5)
Minimum injected flit rate = 0 (at node 0)
Average injected flit rate = 1.14583e-05
Maximum injected flit rate = 0.000166667 (at node 1)
Minimum accepted flit rate = 0 (at node 0)
Average accepted flit rate = 5.20833e-06
Maximum accepted flit rate = 0.000166667 (at node 5)
Total number of injected packets = 9
Total number of injected flits = 44
Average injected packet length = 4.88889
Total number of accepted packets = 4
Total number of accepted flits = 20
Average accepted packet length = 5
Total in-flight flits = 33 (31 measured)
===== Time: 100000 =====
Class 0:
Packets read from trace = 1731 of 100000000 (0%)
Future packets = 1
Waiting packets = 0
Stalled packets = 1712
Packets pending injection = 1
Packets in flight = 10
Minimum packet latency = 5982
Average packet latency = 10950.5
Maximum packet latency = 15919
Minimum network latency = 5982
Average network latency = 10948.5
Maximum network latency = 15915
Slowest packet = 7
Minimum flit latency = 46
Average flit latency = 13873.1
Maximum flit latency = 47754
Slowest flit = 19
Minimum fragmentation = 5932
Average fragmentation = 10867.5
Maximum fragmentation = 15803
Minimum injected packet rate = 0 (at node 0)
Average injected packet rate = 2.23214e-06
Maximum injected packet rate = 4.28571e-05 (at node 1)
Minimum accepted packet rate = 0 (at node 0)
Average accepted packet rate = 8.92857e-07
Maximum accepted packet rate = 2.85714e-05 (at node 5)
Minimum injected flit rate = 0 (at node 0)
Average injected flit rate = 1.07143e-05
Maximum injected flit rate = 0.0002 (at node 1)
Minimum accepted flit rate = 0 (at node 0)
Average accepted flit rate = 4.46429e-06
Maximum accepted flit rate = 0.000142857 (at node 5)
Total number of injected packets = 10
Total number of injected flits = 48
Average injected packet length = 4.8
Total number of accepted packets = 4
Total number of accepted flits = 20
Average accepted packet length = 5
Total in-flight flits = 38 (36 measured)
===== Time: 110000 =====
Class 0:
Packets read from trace = 1839 of 100000000 (0%)
Future packets = 1
Waiting packets = 0
Stalled packets = 1819
Packets pending injection = 2
Packets in flight = 10
Minimum packet latency = 5982
Average packet latency = 10950.5
Maximum packet latency = 15919
Minimum network latency = 5982
Average network latency = 10948.5
Maximum network latency = 15915
Slowest packet = 7
Minimum flit latency = 46
Average flit latency = 13873.1
Maximum flit latency = 47754
Slowest flit = 19
Minimum fragmentation = 5932
Average fragmentation = 10867.5
Maximum fragmentation = 15803
Minimum injected packet rate = 0 (at node 0)
Average injected packet rate = 1.95313e-06
Maximum injected packet rate = 3.75e-05 (at node 1)
Minimum accepted packet rate = 0 (at node 0)
Average accepted packet rate = 7.8125e-07
Maximum accepted packet rate = 2.5e-05 (at node 5)
Minimum injected flit rate = 0 (at node 0)
Average injected flit rate = 9.375e-06
Maximum injected flit rate = 0.000175 (at node 1)
Minimum accepted flit rate = 0 (at node 0)
Average accepted flit rate = 3.90625e-06
Maximum accepted flit rate = 0.000125 (at node 5)
Total number of injected packets = 10
Total number of injected flits = 48
Average injected packet length = 4.8
Total number of accepted packets = 4
Total number of accepted flits = 20
Average accepted packet length = 5
Total in-flight flits = 38 (36 measured)
===== Time: 120000 =====
Class 0:
Packets read from trace = 1881 of 100000000 (0%)
Future packets = 1
Waiting packets = 0
Stalled packets = 1860
Packets pending injection = 3
Packets in flight = 10
Minimum packet latency = 5982
Average packet latency = 10950.5
Maximum packet latency = 15919
Minimum network latency = 5982
Average network latency = 10948.5
Maximum network latency = 15915
Slowest packet = 7
Minimum flit latency = 46
Average flit latency = 13873.1
Maximum flit latency = 47754
Slowest flit = 19
Minimum fragmentation = 5932
Average fragmentation = 10867.5
Maximum fragmentation = 15803
Minimum injected packet rate = 0 (at node 0)
Average injected packet rate = 1.73611e-06
Maximum injected packet rate = 3.33333e-05 (at node 1)
Minimum accepted packet rate = 0 (at node 0)
Average accepted packet rate = 6.94444e-07
Maximum accepted packet rate = 2.22222e-05 (at node 5)
Minimum injected flit rate = 0 (at node 0)
Average injected flit rate = 8.33333e-06
Maximum injected flit rate = 0.000155556 (at node 1)
Minimum accepted flit rate = 0 (at node 0)
Average accepted flit rate = 3.47222e-06
Maximum accepted flit rate = 0.000111111 (at node 5)
Total number of injected packets = 10
Total number of injected flits = 48
Average injected packet length = 4.8
Total number of accepted packets = 4
Total number of accepted flits = 20
Average accepted packet length = 5
Total in-flight flits = 38 (36 measured)
===== Time: 130000 =====
Class 0:
Packets read from trace = 1899 of 100000000 (0%)
Future packets = 1
Waiting packets = 0
Stalled packets = 1877
Packets pending injection = 4
Packets in flight = 10
Minimum packet latency = 5982
Average packet latency = 10950.5
Maximum packet latency = 15919
Minimum network latency = 5982
Average network latency = 10948.5
Maximum network latency = 15915
Slowest packet = 7
Minimum flit latency = 46
Average flit latency = 13873.1
Maximum flit latency = 47754
Slowest flit = 19
Minimum fragmentation = 5932
Average fragmentation = 10867.5
Maximum fragmentation = 15803
Minimum injected packet rate = 0 (at node 0)
Average injected packet rate = 1.5625e-06
Maximum injected packet rate = 3e-05 (at node 1)
Minimum accepted packet rate = 0 (at node 0)
Average accepted packet rate = 6.25e-07
Maximum accepted packet rate = 2e-05 (at node 5)
Minimum injected flit rate = 0 (at node 0)
Average injected flit rate = 7.5e-06
Maximum injected flit rate = 0.00014 (at node 1)
Minimum accepted flit rate = 0 (at node 0)
Average accepted flit rate = 3.125e-06
Maximum accepted flit rate = 0.0001 (at node 5)
Total number of injected packets = 10
Total number of injected flits = 48
Average injected packet length = 4.8
Total number of accepted packets = 4
Total number of accepted flits = 20
Average accepted packet length = 5
Total in-flight flits = 38 (36 measured)
Completed measurements after 130000 cycles.
Draining remaining packets ...
Class 0:
Remaining flits: 7 22 28 29 30 31 32 33 34 35 [...] (38 flits)
Measured flits: 28 29 30 31 32 33 34 35 36 37 [...] (36 flits)
Class 0:
Remaining flits: 7 22 28 29 30 31 32 33 34 35 [...] (38 flits)
Measured flits: 28 29 30 31 32 33 34 35 36 37 [...] (36 flits)
Class 0:
Remaining flits: 22 28 29 30 31 32 33 34 35 36 [...] (36 flits)
Measured flits: 28 29 30 31 32 33 34 35 36 37 [...] (35 flits)
Class 0:
Remaining flits: 28 29 30 31 32 33 34 35 36 37 [...] (31 flits)
Measured flits: 28 29 30 31 32 33 34 35 36 37 [...] (31 flits)
Class 0:
Remaining flits: 28 29 30 31 32 33 34 35 36 37 [...] (30 flits)
Measured flits: 28 29 30 31 32 33 34 35 36 37 [...] (30 flits)
Class 0:
Remaining flits: 32 33 34 35 36 37 46 47 48 49 [...] (23 flits)
Measured flits: 32 33 34 35 36 37 46 47 48 49 [...] (23 flits)
Class 0:
Remaining flits: 33 34 35 36 37 48 49 50 51 52 [...] (19 flits)
Measured flits: 33 34 35 36 37 48 49 50 51 52 [...] (19 flits)
Class 0:
Remaining flits: 33 34 35 36 37 48 49 50 51 52 [...] (15 flits)
Measured flits: 33 34 35 36 37 48 49 50 51 52 [...] (15 flits)
Class 0:
Remaining flits: 33 34 35 36 37 49 50 51 52 68 [...] (14 flits)
Measured flits: 33 34 35 36 37 49 50 51 52 68 [...] (14 flits)
Class 0:
Remaining flits: 33 34 35 36 37 68 69 70 71 72 (10 flits)
Measured flits: 33 34 35 36 37 68 69 70 71 72 (10 flits)
Class 0:
Remaining flits: 33 34 35 36 37 (5 flits)
Measured flits: 33 34 35 36 37 (5 flits)
Class 0:
Remaining flits: 33 34 35 36 37 (5 flits)
Measured flits: 33 34 35 36 37 (5 flits)
Class 0:
Remaining flits: (0 flits)
Measured flits: (0 flits)
Class 0:
Remaining flits: (0 flits)
Measured flits: (0 flits)
Class 0:
Remaining flits: (0 flits)
Measured flits: (0 flits)
Class 0:
Remaining flits: (0 flits)
Measured flits: (0 flits)
Class 0:
Remaining flits: (0 flits)
Measured flits: (0 flits)
Class 0:
Remaining flits: (0 flits)
Measured flits: (0 flits)
Class 0:
Remaining flits: (0 flits)
Measured flits: (0 flits)
Class 0:
Remaining flits: (0 flits)
Measured flits: (0 flits)
Class 0:
Remaining flits: (0 flits)
Measured flits: (0 flits)
Class 0:
Remaining flits: (0 flits)
Measured flits: (0 flits)
Class 0:
Remaining flits: (0 flits)
Measured flits: (0 flits)
Class 0:
Remaining flits: (0 flits)
Measured flits: (0 flits)
Class 0:
Remaining flits: (0 flits)
Measured flits: (0 flits)
Class 0:
Remaining flits: (0 flits)
Measured flits: (0 flits)
Class 0:
Remaining flits: (0 flits)
Measured flits: (0 flits)
Class 0:
Remaining flits: (0 flits)
Measured flits: (0 flits)
Class 0:
Remaining flits: (0 flits)
Measured flits: (0 flits)
Class 0:
Remaining flits: (0 flits)
Measured flits: (0 flits)
Class 0:
Remaining flits: (0 flits)
Measured flits: (0 flits)
Class 0:
Remaining flits: (0 flits)
Measured flits: (0 flits)
Class 0:
Remaining flits: (0 flits)
Measured flits: (0 flits)
Class 0:
Remaining flits: (0 flits)
Measured flits: (0 flits)
Class 0:
Remaining flits: (0 flits)
Measured flits: (0 flits)
Class 0:
Remaining flits: (0 flits)
Measured flits: (0 flits)
Class 0:
Remaining flits: (0 flits)
Measured flits: (0 flits)
Class 0:
Remaining flits: (0 flits)
Measured flits: (0 flits)
Class 0:
Remaining flits: (0 flits)
Measured flits: (0 flits)
Class 0:
Remaining flits: (0 flits)
Measured flits: (0 flits)
Class 0:
Remaining flits: (0 flits)
Measured flits: (0 flits)
Class 0:
Remaining flits: (0 flits)
Measured flits: (0 flits)
Class 0:
Remaining flits: (0 flits)
Measured flits: (0 flits)
Class 0:
Remaining flits: (0 flits)
Measured flits: (0 flits)
Class 0:
Remaining flits: (0 flits)
Measured flits: (0 flits)
Class 0:
Remaining flits: (0 flits)
Measured flits: (0 flits)
Class 0:
Remaining flits: (0 flits)
Measured flits: (0 flits)
Class 0:
Remaining flits: (0 flits)
Measured flits: (0 flits)
Class 0:
Remaining flits: (0 flits)
Measured flits: (0 flits)
Class 0:
Remaining flits: (0 flits)
Measured flits: (0 flits)
Class 0:
Remaining flits: (0 flits)
Measured flits: (0 flits)
Class 0:
Remaining flits: (0 flits)
Measured flits: (0 flits)
Class 0:
Remaining flits: (0 flits)
Measured flits: (0 flits)
Class 0:
Remaining flits: (0 flits)
Measured flits: (0 flits)
Class 0:
Remaining flits: (0 flits)
Measured flits: (0 flits)
Class 0:
Remaining flits: (0 flits)
Measured flits: (0 flits)
Class 0:
Remaining flits: (0 flits)
Measured flits: (0 flits)
Class 0:
Remaining flits: (0 flits)
Measured flits: (0 flits)
Class 0:
Remaining flits: (0 flits)
Measured flits: (0 flits)
Class 0:
Remaining flits: (0 flits)
Measured flits: (0 flits)
Class 0:
Remaining flits: (0 flits)
Measured flits: (0 flits)
Class 0:
Remaining flits: (0 flits)
Measured flits: (0 flits)
Class 0:
Remaining flits: (0 flits)
Measured flits: (0 flits)
Class 0:
Remaining flits: (0 flits)
Measured flits: (0 flits)
Class 0:
Remaining flits: (0 flits)
Measured flits: (0 flits)
Class 0:
Remaining flits: (0 flits)
Measured flits: (0 flits)
Class 0:
Remaining flits: (0 flits)
Measured flits: (0 flits)
Class 0:
Remaining flits: (0 flits)
Measured flits: (0 flits)
Class 0:
Remaining flits: (0 flits)
Measured flits: (0 flits)
Class 0:
Remaining flits: (0 flits)
Measured flits: (0 flits)
Class 0:
Remaining flits: (0 flits)
Measured flits: (0 flits)
Class 0:
Remaining flits: (0 flits)
Measured flits: (0 flits)
Class 0:
Remaining flits: (0 flits)
Measured flits: (0 flits)
Class 0:
Remaining flits: (0 flits)
Measured flits: (0 flits)
Class 0:
Remaining flits: (0 flits)
Measured flits: (0 flits)
Class 0:
Remaining flits: (0 flits)
Measured flits: (0 flits)
Class 0:
Remaining flits: (0 flits)
Measured flits: (0 flits)
Class 0:
Remaining flits: (0 flits)
Measured flits: (0 flits)
Class 0:
Remaining flits: (0 flits)
Measured flits: (0 flits)
Class 0:
Remaining flits: (0 flits)
Measured flits: (0 flits)
Class 0:
Remaining flits: (0 flits)
Measured flits: (0 flits)
Class 0:
Remaining flits: (0 flits)
Measured flits: (0 flits)
Class 0:
Remaining flits: (0 flits)
Measured flits: (0 flits)
Class 0:
Remaining flits: (0 flits)
Measured flits: (0 flits)
Class 0:
Remaining flits: (0 flits)
Measured flits: (0 flits)
Class 0:
Remaining flits: (0 flits)
Measured flits: (0 flits)
Class 0:
Remaining flits: (0 flits)
Measured flits: (0 flits)
Class 0:
Remaining flits: (0 flits)
Measured flits: (0 flits)
Class 0:
Remaining flits: (0 flits)
Measured flits: (0 flits)
Class 0:
Remaining flits: (0 flits)
Measured flits: (0 flits)
Class 0:
Remaining flits: (0 flits)
Measured flits: (0 flits)
Class 0:
Remaining flits: (0 flits)
Measured flits: (0 flits)
Class 0:
Remaining flits: (0 flits)
Measured flits: (0 flits)
Class 0:
Remaining flits: (0 flits)
Measured flits: (0 flits)
Class 0:
Remaining flits: (0 flits)
Measured flits: (0 flits)
Class 0:
Remaining flits: (0 flits)
Measured flits: (0 flits)
Class 0:
Remaining flits: (0 flits)
Measured flits: (0 flits)
Class 0:
Remaining flits: (0 flits)
Measured flits: (0 flits)
Class 0:
Remaining flits: (0 flits)
Measured flits: (0 flits)
Class 0:
Remaining flits: (0 flits)
Measured flits: (0 flits)
Class 0:
Remaining flits: (0 flits)
Measured flits: (0 flits)
Time taken is 131000 cycles
====== Traffic class 0 ======

Total number of flits generated = 73, changed lanes = 0
Overall minimum packet latency = 5982 (1 samples)
Overall average packet latency = 47527.2 (1 samples)
Overall maximum packet latency = 83616 (1 samples)
Overall minimum network latency = 5982 (1 samples)
Overall average network latency = 47525.6 (1 samples)
Overall maximum network latency = 83616 (1 samples)
Overall minimum flit latency = 46 (1 samples)
Overall average flit latency = 42456.2 (1 samples)
Overall maximum flit latency = 129792 (1 samples)
Overall minimum fragmentation = 2 (1 samples)
Overall average fragmentation = 7087 (1 samples)
Overall maximum fragmentation = 49109 (1 samples)
Overall minimum injected packet rate = 0 (1 samples)
Overall average injected packet rate = 1.5625e-06 (1 samples)
Overall maximum injected packet rate = 3e-05 (1 samples)
Overall minimum accepted packet rate = 0 (1 samples)
Overall average accepted packet rate = 6.25e-07 (1 samples)
Overall maximum accepted packet rate = 2e-05 (1 samples)
Overall minimum injected flit rate = 0 (1 samples)
Overall average injected flit rate = 7.5e-06 (1 samples)
Overall maximum injected flit rate = 0.00014 (1 samples)
Overall minimum accepted flit rate = 0 (1 samples)
Overall average accepted flit rate = 3.125e-06 (1 samples)
Overall maximum accepted flit rate = 0.0001 (1 samples)
Overall average injected packet size = 4.8 (1 samples)
Overall average accepted packet size = 5 (1 samples)
Overall average hops = 6.6 (1 samples)
Overall throughput of the network (flits/cycle) = 0.00073
Overall throughput of the network (packets/cycle) = 0.00017
Overall workload runtime = 100000 (1 samples)

The distribution of the source packets of size 1 is: 

Source [0] = 0
Source [1] = 0
Source [2] = 1
Source [3] = 0
Source [4] = 0
Source [5] = 0
Source [6] = 0
Source [7] = 0
Source [8] = 0
Source [9] = 0
Source [10] = 0
Source [11] = 0
Source [12] = 0
Source [13] = 0
Source [14] = 0
Source [15] = 0
Source [16] = 0
Source [17] = 0
Source [18] = 0
Source [19] = 0
Source [20] = 0
Source [21] = 0
Source [22] = 0
Source [23] = 1
Source [24] = 0
Source [25] = 0
Source [26] = 0
Source [27] = 1
Source [28] = 0
Source [29] = 0
Source [30] = 0
Source [31] = 0
Source [32] = 0
Source [33] = 0
Source [34] = 0
Source [35] = 0
Source [36] = 0
Source [37] = 0
Source [38] = 0
Source [39] = 0
Source [40] = 0
Source [41] = 0
Source [42] = 0
Source [43] = 0
Source [44] = 0
Source [45] = 0
Source [46] = 0
Source [47] = 0
Source [48] = 0
Source [49] = 0
Source [50] = 0
Source [51] = 0
Source [52] = 0
Source [53] = 0
Source [54] = 0
Source [55] = 0
Source [56] = 0
Source [57] = 0
Source [58] = 0
Source [59] = 0
Source [60] = 0
Source [61] = 0
Source [62] = 0
Source [63] = 0
The distribution of the source packets of size 5 is: 

Source [0] = 0
Source [1] = 3
Source [2] = 0
Source [3] = 0
Source [4] = 0
Source [5] = 0
Source [6] = 0
Source [7] = 0
Source [8] = 0
Source [9] = 1
Source [10] = 0
Source [11] = 0
Source [12] = 0
Source [13] = 0
Source [14] = 0
Source [15] = 0
Source [16] = 0
Source [17] = 0
Source [18] = 0
Source [19] = 0
Source [20] = 0
Source [21] = 0
Source [22] = 0
Source [23] = 0
Source [24] = 0
Source [25] = 0
Source [26] = 0
Source [27] = 1
Source [28] = 0
Source [29] = 0
Source [30] = 0
Source [31] = 0
Source [32] = 1
Source [33] = 3
Source [34] = 0
Source [35] = 0
Source [36] = 0
Source [37] = 1
Source [38] = 3
Source [39] = 0
Source [40] = 0
Source [41] = 0
Source [42] = 0
Source [43] = 0
Source [44] = 0
Source [45] = 0
Source [46] = 1
Source [47] = 0
Source [48] = 0
Source [49] = 0
Source [50] = 0
Source [51] = 0
Source [52] = 0
Source [53] = 0
Source [54] = 0
Source [55] = 0
Source [56] = 0
Source [57] = 0
Source [58] = 0
Source [59] = 0
Source [60] = 0
Source [61] = 0
Source [62] = 0
Source [63] = 0
The distribution of the dest packets of size 1 is: 

dest [0] = 0
dest [1] = 0
dest [2] = 1
dest [3] = 0
dest [4] = 0
dest [5] = 0
dest [6] = 0
dest [7] = 0
dest [8] = 0
dest [9] = 0
dest [10] = 0
dest [11] = 0
dest [12] = 0
dest [13] = 0
dest [14] = 0
dest [15] = 0
dest [16] = 0
dest [17] = 0
dest [18] = 0
dest [19] = 0
dest [20] = 0
dest [21] = 0
dest [22] = 0
dest [23] = 0
dest [24] = 0
dest [25] = 0
dest [26] = 0
dest [27] = 2
dest [28] = 0
dest [29] = 0
dest [30] = 0
dest [31] = 0
dest [32] = 0
dest [33] = 0
dest [34] = 0
dest [35] = 0
dest [36] = 0
dest [37] = 0
dest [38] = 0
dest [39] = 0
dest [40] = 0
dest [41] = 0
dest [42] = 0
dest [43] = 0
dest [44] = 0
dest [45] = 0
dest [46] = 0
dest [47] = 0
dest [48] = 0
dest [49] = 0
dest [50] = 0
dest [51] = 0
dest [52] = 0
dest [53] = 0
dest [54] = 0
dest [55] = 0
dest [56] = 0
dest [57] = 0
dest [58] = 0
dest [59] = 0
dest [60] = 0
dest [61] = 0
dest [62] = 0
dest [63] = 0
The distribution of the dest packets of size 5 is: 

dest [0] = 0
dest [1] = 0
dest [2] = 2
dest [3] = 0
dest [4] = 0
dest [5] = 7
dest [6] = 0
dest [7] = 0
dest [8] = 0
dest [9] = 0
dest [10] = 0
dest [11] = 0
dest [12] = 0
dest [13] = 0
dest [14] = 0
dest [15] = 0
dest [16] = 0
dest [17] = 0
dest [18] = 0
dest [19] = 0
dest [20] = 0
dest [21] = 0
dest [22] = 0
dest [23] = 0
dest [24] = 0
dest [25] = 0
dest [26] = 0
dest [27] = 0
dest [28] = 0
dest [29] = 0
dest [30] = 0
dest [31] = 0
dest [32] = 0
dest [33] = 0
dest [34] = 0
dest [35] = 0
dest [36] = 0
dest [37] = 0
dest [38] = 0
dest [39] = 0
dest [40] = 0
dest [41] = 0
dest [42] = 0
dest [43] = 0
dest [44] = 0
dest [45] = 0
dest [46] = 0
dest [47] = 1
dest [48] = 0
dest [49] = 0
dest [50] = 0
dest [51] = 0
dest [52] = 0
dest [53] = 0
dest [54] = 0
dest [55] = 0
dest [56] = 0
dest [57] = 0
dest [58] = 4
dest [59] = 0
dest [60] = 0
dest [61] = 0
dest [62] = 0
dest [63] = 0Total run time 213.684
