make: Nothing to be done for 'all'.
Master: Running timer....
Master: Running SRC....
BEGIN Configuration File: ./examples/bitrev
// Topology

topology = torus;
k = 4;
n = 2;

// Routing
routing_function = dim_order;

// Flow control
num_vcs     = 4;
vc_buf_size = 4;
wait_for_tail_credit = 0;

// Router architecture
vc_allocator = islip;
sw_allocator = islip;
alloc_iters  = 1;

credit_delay   = 1;
routing_delay  = 1;
vc_alloc_delay = 1;
sw_alloc_delay = 1;

input_speedup     = 1;
output_speedup    = 1;
internal_speedup  = 1.0;

vc_busy_when_full = 0;

// Traffic
traffic = bitrev;
packet_size = 1;

// Simulation
sim_type = throughput;

injection_rate = 0.05;

END Configuration File: ./examples/bitrev
===== Time: 10000 =====
Class 0:
Minimum packet latency = 7
Average packet latency = 22.9637
Maximum packet latency = 167
Minimum network latency = 8
Average network latency = 23.9637
Maximum network latency = 168
Slowest packet = 3226
Minimum flit latency = 8
Average flit latency = 23.9637
Maximum flit latency = 168
Slowest flit = 3226
Minimum fragmentation = 0
Average fragmentation = 0
Maximum fragmentation = 0
Minimum injected packet rate = 0.0458 (at node 0)
Average injected packet rate = 0.0494687
Maximum injected packet rate = 0.0515 (at node 12)
Minimum accepted packet rate = 0.0458 (at node 0)
Average accepted packet rate = 0.0493688
Maximum accepted packet rate = 0.0513 (at node 3)
Minimum injected flit rate = 0.0458 (at node 0)
Average injected flit rate = 0.0494687
Maximum injected flit rate = 0.0515 (at node 12)
Minimum accepted flit rate = 0.0458 (at node 0)
Average accepted flit rate = 0.0493688
Maximum accepted flit rate = 0.0513 (at node 3)
Total number of injected packets = 7915
Total number of injected flits = 7915
Average injected packet length = 1
Total number of accepted packets = 7899
Total number of accepted flits = 7899
Average accepted packet length = 1
Total in-flight flits = 16 (0 measured)
===== Time: 20000 =====
Class 0:
Minimum packet latency = 7
Average packet latency = 23.5635
Maximum packet latency = 179
Minimum network latency = 8
Average network latency = 24.5635
Maximum network latency = 180
Slowest packet = 9306
Minimum flit latency = 8
Average flit latency = 24.5635
Maximum flit latency = 180
Slowest flit = 9306
Minimum fragmentation = 0
Average fragmentation = 0
Maximum fragmentation = 0
Minimum injected packet rate = 0.0483 (at node 8)
Average injected packet rate = 0.0500375
Maximum injected packet rate = 0.0526 (at node 12)
Minimum accepted packet rate = 0.04815 (at node 1)
Average accepted packet rate = 0.0499625
Maximum accepted packet rate = 0.0525 (at node 3)
Minimum injected flit rate = 0.0483 (at node 8)
Average injected flit rate = 0.0500375
Maximum injected flit rate = 0.0526 (at node 12)
Minimum accepted flit rate = 0.04815 (at node 1)
Average accepted flit rate = 0.0499625
Maximum accepted flit rate = 0.0525 (at node 3)
Total number of injected packets = 16012
Total number of injected flits = 16012
Average injected packet length = 1
Total number of accepted packets = 15988
Total number of accepted flits = 15988
Average accepted packet length = 1
Total in-flight flits = 24 (0 measured)
===== Time: 30000 =====
Class 0:
Minimum packet latency = 7
Average packet latency = 23.686
Maximum packet latency = 122
Minimum network latency = 8
Average network latency = 24.686
Maximum network latency = 123
Slowest packet = 23024
Minimum flit latency = 8
Average flit latency = 24.686
Maximum flit latency = 123
Slowest flit = 23024
Minimum fragmentation = 0
Average fragmentation = 0
Maximum fragmentation = 0
Minimum injected packet rate = 0.045 (at node 15)
Average injected packet rate = 0.0495875
Maximum injected packet rate = 0.0541 (at node 13)
Minimum accepted packet rate = 0.045 (at node 15)
Average accepted packet rate = 0.0496375
Maximum accepted packet rate = 0.0544 (at node 11)
Minimum injected flit rate = 0.045 (at node 15)
Average injected flit rate = 0.0495875
Maximum injected flit rate = 0.0541 (at node 13)
Minimum accepted flit rate = 0.045 (at node 15)
Average accepted flit rate = 0.0496375
Maximum accepted flit rate = 0.0544 (at node 11)
Total number of injected packets = 7934
Total number of injected flits = 7934
Average injected packet length = 1
Total number of accepted packets = 7942
Total number of accepted flits = 7942
Average accepted packet length = 1
Total in-flight flits = 16 (0 measured)
===== Time: 40000 =====
Class 0:
Minimum packet latency = 7
Average packet latency = 24.6827
Maximum packet latency = 218
Minimum network latency = 8
Average network latency = 25.6827
Maximum network latency = 219
Slowest packet = 29850
Minimum flit latency = 8
Average flit latency = 25.687
Maximum flit latency = 219
Slowest flit = 29850
Minimum fragmentation = 0
Average fragmentation = 0
Maximum fragmentation = 0
Minimum injected packet rate = 0.0473 (at node 6)
Average injected packet rate = 0.0501938
Maximum injected packet rate = 0.0543 (at node 14)
Minimum accepted packet rate = 0.0472 (at node 6)
Average accepted packet rate = 0.0501438
Maximum accepted packet rate = 0.0541 (at node 7)
Minimum injected flit rate = 0.0473 (at node 6)
Average injected flit rate = 0.0501938
Maximum injected flit rate = 0.0543 (at node 14)
Minimum accepted flit rate = 0.0472 (at node 6)
Average accepted flit rate = 0.0501438
Maximum accepted flit rate = 0.0541 (at node 7)
Total number of injected packets = 8031
Total number of injected flits = 8031
Average injected packet length = 1
Total number of accepted packets = 8023
Total number of accepted flits = 8023
Average accepted packet length = 1
Total in-flight flits = 24 (24 measured)
===== Time: 50000 =====
Class 0:
Minimum packet latency = 7
Average packet latency = 24.2563
Maximum packet latency = 218
Minimum network latency = 8
Average network latency = 25.2563
Maximum network latency = 219
Slowest packet = 29850
Minimum flit latency = 8
Average flit latency = 25.2589
Maximum flit latency = 219
Slowest flit = 29850
Minimum fragmentation = 0
Average fragmentation = 0
Maximum fragmentation = 0
Minimum injected packet rate = 0.04815 (at node 10)
Average injected packet rate = 0.0503
Maximum injected packet rate = 0.05345 (at node 14)
Minimum accepted packet rate = 0.04825 (at node 5)
Average accepted packet rate = 0.0503031
Maximum accepted packet rate = 0.05345 (at node 7)
Minimum injected flit rate = 0.04815 (at node 10)
Average injected flit rate = 0.0503
Maximum injected flit rate = 0.05345 (at node 14)
Minimum accepted flit rate = 0.04825 (at node 5)
Average accepted flit rate = 0.0503031
Maximum accepted flit rate = 0.05345 (at node 7)
Total number of injected packets = 16096
Total number of injected flits = 16096
Average injected packet length = 1
Total number of accepted packets = 16097
Total number of accepted flits = 16097
Average accepted packet length = 1
Total in-flight flits = 15 (15 measured)
===== Time: 60000 =====
Class 0:
Minimum packet latency = 7
Average packet latency = 24.6088
Maximum packet latency = 218
Minimum network latency = 8
Average network latency = 25.6088
Maximum network latency = 219
Slowest packet = 29850
Minimum flit latency = 8
Average flit latency = 25.6103
Maximum flit latency = 219
Slowest flit = 29850
Minimum fragmentation = 0
Average fragmentation = 0
Maximum fragmentation = 0
Minimum injected packet rate = 0.0482 (at node 10)
Average injected packet rate = 0.0501896
Maximum injected packet rate = 0.0528667 (at node 14)
Minimum accepted packet rate = 0.0482667 (at node 5)
Average accepted packet rate = 0.0501729
Maximum accepted packet rate = 0.0528333 (at node 7)
Minimum injected flit rate = 0.0482 (at node 10)
Average injected flit rate = 0.0501896
Maximum injected flit rate = 0.0528667 (at node 14)
Minimum accepted flit rate = 0.0482667 (at node 5)
Average accepted flit rate = 0.0501729
Maximum accepted flit rate = 0.0528333 (at node 7)
Total number of injected packets = 24091
Total number of injected flits = 24091
Average injected packet length = 1
Total number of accepted packets = 24083
Total number of accepted flits = 24083
Average accepted packet length = 1
Total in-flight flits = 24 (24 measured)
Draining remaining packets ...
Class 0:
Remaining flits: 48009 48011 48016 48019 48020 48022 48023 48025 48026 48027 [...] (16 flits)
Measured flits: 48009 48011 48016 48019 48020 48022 48023 48025 48026 48027 [...] (16 flits)
Class 0:
Remaining flits: 48009 48011 48023 48030 48031 48032 48034 48035 (8 flits)
Measured flits: 48009 48011 48023 48030 48031 48032 48034 48035 (8 flits)
Class 0:
Remaining flits: 48009 48023 48032 (3 flits)
Measured flits: 48009 48023 48032 (3 flits)
Class 0:
Remaining flits: 48009 48023 (2 flits)
Measured flits: 48009 48023 (2 flits)
Class 0:
Remaining flits: 48009 48023 (2 flits)
Measured flits: 48009 48023 (2 flits)
Class 0:
Remaining flits: 48009 48023 (2 flits)
Measured flits: 48009 48023 (2 flits)
Class 0:
Remaining flits: 48009 48023 (2 flits)
Measured flits: 48009 48023 (2 flits)
Class 0:
Remaining flits: 48009 48023 (2 flits)
Measured flits: 48009 48023 (2 flits)
Class 0:
Remaining flits: 48009 48023 (2 flits)
Measured flits: 48009 48023 (2 flits)
Class 0:
Remaining flits: 48009 48023 (2 flits)
Measured flits: 48009 48023 (2 flits)
Class 0:
Remaining flits: 48009 48023 (2 flits)
Measured flits: 48009 48023 (2 flits)
Class 0:
Remaining flits: 48009 48023 (2 flits)
Measured flits: 48009 48023 (2 flits)
Class 0:
Remaining flits: 48009 48023 (2 flits)
Measured flits: 48009 48023 (2 flits)
Class 0:
Remaining flits: 48009 48023 (2 flits)
Measured flits: 48009 48023 (2 flits)
Class 0:
Remaining flits: 48009 48023 (2 flits)
Measured flits: 48009 48023 (2 flits)
Class 0:
Remaining flits: 48009 48023 (2 flits)
Measured flits: 48009 48023 (2 flits)
Class 0:
Remaining flits: 48009 48023 (2 flits)
Measured flits: 48009 48023 (2 flits)
Class 0:
Remaining flits: 48009 48023 (2 flits)
Measured flits: 48009 48023 (2 flits)
Class 0:
Remaining flits: 48009 48023 (2 flits)
Measured flits: 48009 48023 (2 flits)
Class 0:
Remaining flits: 48009 48023 (2 flits)
Measured flits: 48009 48023 (2 flits)
Class 0:
Remaining flits: 48009 48023 (2 flits)
Measured flits: 48009 48023 (2 flits)
Class 0:
Remaining flits: 48009 48023 (2 flits)
Measured flits: 48009 48023 (2 flits)
Class 0:
Remaining flits: 48009 48023 (2 flits)
Measured flits: 48009 48023 (2 flits)
Class 0:
Remaining flits: 48009 48023 (2 flits)
Measured flits: 48009 48023 (2 flits)
Class 0:
Remaining flits: 48009 48023 (2 flits)
Measured flits: 48009 48023 (2 flits)
Class 0:
Remaining flits: 48009 48023 (2 flits)
Measured flits: 48009 48023 (2 flits)
Class 0:
Remaining flits: 48009 48023 (2 flits)
Measured flits: 48009 48023 (2 flits)
Class 0:
Remaining flits: 48009 48023 (2 flits)
Measured flits: 48009 48023 (2 flits)
Class 0:
Remaining flits: 48009 48023 (2 flits)
Measured flits: 48009 48023 (2 flits)
Class 0:
Remaining flits: 48009 48023 (2 flits)
Measured flits: 48009 48023 (2 flits)
Class 0:
Remaining flits: 48009 48023 (2 flits)
Measured flits: 48009 48023 (2 flits)
Class 0:
Remaining flits: 48009 48023 (2 flits)
Measured flits: 48009 48023 (2 flits)
Class 0:
Remaining flits: 48009 48023 (2 flits)
Measured flits: 48009 48023 (2 flits)
Class 0:
Remaining flits: 48009 48023 (2 flits)
Measured flits: 48009 48023 (2 flits)
Class 0:
Remaining flits: 48009 48023 (2 flits)
Measured flits: 48009 48023 (2 flits)
Class 0:
Remaining flits: 48009 48023 (2 flits)
Measured flits: 48009 48023 (2 flits)
Class 0:
Remaining flits: 48009 48023 (2 flits)
Measured flits: 48009 48023 (2 flits)
Class 0:
Remaining flits: 48009 48023 (2 flits)
Measured flits: 48009 48023 (2 flits)
Class 0:
Remaining flits: 48009 48023 (2 flits)
Measured flits: 48009 48023 (2 flits)
Class 0:
Remaining flits: 48009 48023 (2 flits)
Measured flits: 48009 48023 (2 flits)
Class 0:
Remaining flits: 48009 48023 (2 flits)
Measured flits: 48009 48023 (2 flits)
Class 0:
Remaining flits: 48009 48023 (2 flits)
Measured flits: 48009 48023 (2 flits)
Class 0:
Remaining flits: 48009 48023 (2 flits)
Measured flits: 48009 48023 (2 flits)
Class 0:
Remaining flits: 48009 48023 (2 flits)
Measured flits: 48009 48023 (2 flits)
Class 0:
Remaining flits: 48009 48023 (2 flits)
Measured flits: 48009 48023 (2 flits)
Class 0:
Remaining flits: 48009 48023 (2 flits)
Measured flits: 48009 48023 (2 flits)
Class 0:
Remaining flits: 48009 48023 (2 flits)
Measured flits: 48009 48023 (2 flits)
Class 0:
Remaining flits: 48009 48023 (2 flits)
Measured flits: 48009 48023 (2 flits)
Class 0:
Remaining flits: 48009 48023 (2 flits)
Measured flits: 48009 48023 (2 flits)
Class 0:
Remaining flits: 48009 48023 (2 flits)
Measured flits: 48009 48023 (2 flits)
Class 0:
Remaining flits: 48009 48023 (2 flits)
Measured flits: 48009 48023 (2 flits)
Class 0:
Remaining flits: 48009 48023 (2 flits)
Measured flits: 48009 48023 (2 flits)
Class 0:
Remaining flits: 48009 48023 (2 flits)
Measured flits: 48009 48023 (2 flits)
Class 0:
Remaining flits: 48009 48023 (2 flits)
Measured flits: 48009 48023 (2 flits)
Class 0:
Remaining flits: 48009 48023 (2 flits)
Measured flits: 48009 48023 (2 flits)
Class 0:
Remaining flits: 48009 48023 (2 flits)
Measured flits: 48009 48023 (2 flits)
Class 0:
Remaining flits: 48009 48023 (2 flits)
Measured flits: 48009 48023 (2 flits)
Class 0:
Remaining flits: 48009 48023 (2 flits)
Measured flits: 48009 48023 (2 flits)
Class 0:
Remaining flits: 48009 48023 (2 flits)
Measured flits: 48009 48023 (2 flits)
Class 0:
Remaining flits: 48009 48023 (2 flits)
Measured flits: 48009 48023 (2 flits)
Class 0:
Remaining flits: 48009 48023 (2 flits)
Measured flits: 48009 48023 (2 flits)
Class 0:
Remaining flits: 48009 48023 (2 flits)
Measured flits: 48009 48023 (2 flits)
Class 0:
Remaining flits: 48009 48023 (2 flits)
Measured flits: 48009 48023 (2 flits)
Class 0:
Remaining flits: 48009 48023 (2 flits)
Measured flits: 48009 48023 (2 flits)
Class 0:
Remaining flits: 48009 48023 (2 flits)
Measured flits: 48009 48023 (2 flits)
Class 0:
Remaining flits: 48009 48023 (2 flits)
Measured flits: 48009 48023 (2 flits)
Class 0:
Remaining flits: 48009 48023 (2 flits)
Measured flits: 48009 48023 (2 flits)
Class 0:
Remaining flits: 48009 48023 (2 flits)
Measured flits: 48009 48023 (2 flits)
Class 0:
Remaining flits: 48009 48023 (2 flits)
Measured flits: 48009 48023 (2 flits)
Class 0:
Remaining flits: 48009 48023 (2 flits)
Measured flits: 48009 48023 (2 flits)
Class 0:
Remaining flits: 48009 48023 (2 flits)
Measured flits: 48009 48023 (2 flits)
Class 0:
Remaining flits: 48009 48023 (2 flits)
Measured flits: 48009 48023 (2 flits)
Class 0:
Remaining flits: 48009 48023 (2 flits)
Measured flits: 48009 48023 (2 flits)
Class 0:
Remaining flits: 48009 48023 (2 flits)
Measured flits: 48009 48023 (2 flits)
Class 0:
Remaining flits: 48009 48023 (2 flits)
Measured flits: 48009 48023 (2 flits)
Class 0:
Remaining flits: 48009 48023 (2 flits)
Measured flits: 48009 48023 (2 flits)
Class 0:
Remaining flits: 48009 48023 (2 flits)
Measured flits: 48009 48023 (2 flits)
Class 0:
Remaining flits: 48009 48023 (2 flits)
Measured flits: 48009 48023 (2 flits)
Class 0:
Remaining flits: 48009 48023 (2 flits)
Measured flits: 48009 48023 (2 flits)
Class 0:
Remaining flits: 48009 48023 (2 flits)
Measured flits: 48009 48023 (2 flits)
Class 0:
Remaining flits: 48009 48023 (2 flits)
Measured flits: 48009 48023 (2 flits)
Class 0:
Remaining flits: 48009 48023 (2 flits)
Measured flits: 48009 48023 (2 flits)
Class 0:
Remaining flits: 48009 48023 (2 flits)
Measured flits: 48009 48023 (2 flits)
Class 0:
Remaining flits: 48009 48023 (2 flits)
Measured flits: 48009 48023 (2 flits)
Class 0:
Remaining flits: 48009 48023 (2 flits)
Measured flits: 48009 48023 (2 flits)
Class 0:
Remaining flits: 48009 48023 (2 flits)
Measured flits: 48009 48023 (2 flits)
Class 0:
Remaining flits: 48009 48023 (2 flits)
Measured flits: 48009 48023 (2 flits)
Class 0:
Remaining flits: 48009 48023 (2 flits)
Measured flits: 48009 48023 (2 flits)
Class 0:
Remaining flits: 48009 48023 (2 flits)
Measured flits: 48009 48023 (2 flits)
Class 0:
Remaining flits: 48009 48023 (2 flits)
Measured flits: 48009 48023 (2 flits)
Class 0:
Remaining flits: 48009 48023 (2 flits)
Measured flits: 48009 48023 (2 flits)
Class 0:
Remaining flits: 48009 48023 (2 flits)
Measured flits: 48009 48023 (2 flits)
Class 0:
Remaining flits: 48009 48023 (2 flits)
Measured flits: 48009 48023 (2 flits)
Class 0:
Remaining flits: 48009 48023 (2 flits)
Measured flits: 48009 48023 (2 flits)
Class 0:
Remaining flits: 48009 48023 (2 flits)
Measured flits: 48009 48023 (2 flits)
Class 0:
Remaining flits: 48009 48023 (2 flits)
Measured flits: 48009 48023 (2 flits)
Class 0:
Remaining flits: 48009 48023 (2 flits)
Measured flits: 48009 48023 (2 flits)
Class 0:
Remaining flits: 48009 48023 (2 flits)
Measured flits: 48009 48023 (2 flits)
Class 0:
Remaining flits: 48009 48023 (2 flits)
Measured flits: 48009 48023 (2 flits)
Class 0:
Remaining flits: 48009 48023 (2 flits)
Measured flits: 48009 48023 (2 flits)
Class 0:
Remaining flits: 48009 48023 (2 flits)
Measured flits: 48009 48023 (2 flits)
Time taken is 61000 cycles
====== Traffic class 0 ======

Total number of flits generated = 48037, changed lanes = 44852
Overall minimum packet latency = 7 (1 samples)
Overall average packet latency = 24.6136 (1 samples)
Overall maximum packet latency = 218 (1 samples)
Overall minimum network latency = 8 (1 samples)
Overall average network latency = 25.6136 (1 samples)
Overall maximum network latency = 219 (1 samples)
Overall minimum flit latency = 8 (1 samples)
Overall average flit latency = 25.6151 (1 samples)
Overall maximum flit latency = 219 (1 samples)
Overall minimum fragmentation = 0 (1 samples)
Overall average fragmentation = 0 (1 samples)
Overall maximum fragmentation = 0 (1 samples)
Overall minimum injected packet rate = 0.0482 (1 samples)
Overall average injected packet rate = 0.0501896 (1 samples)
Overall maximum injected packet rate = 0.0528667 (1 samples)
Overall minimum accepted packet rate = 0.0482667 (1 samples)
Overall average accepted packet rate = 0.0501729 (1 samples)
Overall maximum accepted packet rate = 0.0528333 (1 samples)
Overall minimum injected flit rate = 0.0482 (1 samples)
Overall average injected flit rate = 0.0501896 (1 samples)
Overall maximum injected flit rate = 0.0528667 (1 samples)
Overall minimum accepted flit rate = 0.0482667 (1 samples)
Overall average accepted flit rate = 0.0501729 (1 samples)
Overall maximum accepted flit rate = 0.0528333 (1 samples)
Overall average injected packet size = 1 (1 samples)
Overall average accepted packet size = 1 (1 samples)
Overall average hops = 3.00627 (1 samples)
Overall throughput of the network (flits/cycle) = 1.60117
Overall throughput of the network (packets/cycle) = 1.60117
Total run time 67.3808
