make: Nothing to be done for 'all'.
Master: Running timer....
Master: Running SRC....
BEGIN Configuration File: ./examples/bitrev
// Topology

topology = torus;
k = 4;
n = 2;

// Routing
routing_function = dim_order;

// Flow control
num_vcs     = 4;
vc_buf_size = 4;
wait_for_tail_credit = 0;

// Router architecture
vc_allocator = islip;
sw_allocator = islip;
alloc_iters  = 1;

credit_delay   = 1;
routing_delay  = 1;
vc_alloc_delay = 1;
sw_alloc_delay = 1;

input_speedup     = 1;
output_speedup    = 1;
internal_speedup  = 1.0;

vc_busy_when_full = 0;

// Traffic
traffic = transpose;
packet_size = 1;

// Simulation
sim_type = throughput;

injection_rate = 0.05;

END Configuration File: ./examples/bitrev
===== Time: 10000 =====
Class 0:
Minimum packet latency = 7
Average packet latency = 24.3944
Maximum packet latency = 186
Minimum network latency = 8
Average network latency = 25.3944
Maximum network latency = 187
Slowest packet = 170
Minimum flit latency = 8
Average flit latency = 25.3944
Maximum flit latency = 187
Slowest flit = 170
Minimum fragmentation = 0
Average fragmentation = 0
Maximum fragmentation = 0
Minimum injected packet rate = 0.0458 (at node 0)
Average injected packet rate = 0.0494687
Maximum injected packet rate = 0.0515 (at node 12)
Minimum accepted packet rate = 0.0458 (at node 0)
Average accepted packet rate = 0.04935
Maximum accepted packet rate = 0.0513 (at node 3)
Minimum injected flit rate = 0.0458 (at node 0)
Average injected flit rate = 0.0494687
Maximum injected flit rate = 0.0515 (at node 12)
Minimum accepted flit rate = 0.0458 (at node 0)
Average accepted flit rate = 0.04935
Maximum accepted flit rate = 0.0513 (at node 3)
Total number of injected packets = 7915
Total number of injected flits = 7915
Average injected packet length = 1
Total number of accepted packets = 7896
Total number of accepted flits = 7896
Average accepted packet length = 1
Total in-flight flits = 19 (0 measured)
===== Time: 20000 =====
Class 0:
Minimum packet latency = 7
Average packet latency = 24.3256
Maximum packet latency = 186
Minimum network latency = 8
Average network latency = 25.3256
Maximum network latency = 187
Slowest packet = 170
Minimum flit latency = 8
Average flit latency = 25.3256
Maximum flit latency = 187
Slowest flit = 170
Minimum fragmentation = 0
Average fragmentation = 0
Maximum fragmentation = 0
Minimum injected packet rate = 0.0483 (at node 8)
Average injected packet rate = 0.0500375
Maximum injected packet rate = 0.0526 (at node 12)
Minimum accepted packet rate = 0.04815 (at node 2)
Average accepted packet rate = 0.0499656
Maximum accepted packet rate = 0.0525 (at node 3)
Minimum injected flit rate = 0.0483 (at node 8)
Average injected flit rate = 0.0500375
Maximum injected flit rate = 0.0526 (at node 12)
Minimum accepted flit rate = 0.04815 (at node 2)
Average accepted flit rate = 0.0499656
Maximum accepted flit rate = 0.0525 (at node 3)
Total number of injected packets = 16012
Total number of injected flits = 16012
Average injected packet length = 1
Total number of accepted packets = 15989
Total number of accepted flits = 15989
Average accepted packet length = 1
Total in-flight flits = 23 (0 measured)
===== Time: 30000 =====
Class 0:
Minimum packet latency = 7
Average packet latency = 23.217
Maximum packet latency = 117
Minimum network latency = 8
Average network latency = 24.217
Maximum network latency = 118
Slowest packet = 19945
Minimum flit latency = 8
Average flit latency = 24.217
Maximum flit latency = 118
Slowest flit = 19945
Minimum fragmentation = 0
Average fragmentation = 0
Maximum fragmentation = 0
Minimum injected packet rate = 0.045 (at node 15)
Average injected packet rate = 0.0495875
Maximum injected packet rate = 0.0541 (at node 13)
Minimum accepted packet rate = 0.045 (at node 15)
Average accepted packet rate = 0.0496313
Maximum accepted packet rate = 0.0544 (at node 7)
Minimum injected flit rate = 0.045 (at node 15)
Average injected flit rate = 0.0495875
Maximum injected flit rate = 0.0541 (at node 13)
Minimum accepted flit rate = 0.045 (at node 15)
Average accepted flit rate = 0.0496313
Maximum accepted flit rate = 0.0544 (at node 7)
Total number of injected packets = 7934
Total number of injected flits = 7934
Average injected packet length = 1
Total number of accepted packets = 7941
Total number of accepted flits = 7941
Average accepted packet length = 1
Total in-flight flits = 16 (0 measured)
===== Time: 40000 =====
Class 0:
Minimum packet latency = 7
Average packet latency = 24.1852
Maximum packet latency = 200
Minimum network latency = 8
Average network latency = 25.1852
Maximum network latency = 201
Slowest packet = 23993
Minimum flit latency = 8
Average flit latency = 25.1897
Maximum flit latency = 201
Slowest flit = 23993
Minimum fragmentation = 0
Average fragmentation = 0
Maximum fragmentation = 0
Minimum injected packet rate = 0.0473 (at node 6)
Average injected packet rate = 0.0501938
Maximum injected packet rate = 0.0543 (at node 14)
Minimum accepted packet rate = 0.0473 (at node 9)
Average accepted packet rate = 0.0501375
Maximum accepted packet rate = 0.0542 (at node 11)
Minimum injected flit rate = 0.0473 (at node 6)
Average injected flit rate = 0.0501938
Maximum injected flit rate = 0.0543 (at node 14)
Minimum accepted flit rate = 0.0473 (at node 9)
Average accepted flit rate = 0.0501375
Maximum accepted flit rate = 0.0542 (at node 11)
Total number of injected packets = 8031
Total number of injected flits = 8031
Average injected packet length = 1
Total number of accepted packets = 8022
Total number of accepted flits = 8022
Average accepted packet length = 1
Total in-flight flits = 25 (25 measured)
===== Time: 50000 =====
Class 0:
Minimum packet latency = 7
Average packet latency = 23.8846
Maximum packet latency = 200
Minimum network latency = 8
Average network latency = 24.8846
Maximum network latency = 201
Slowest packet = 23993
Minimum flit latency = 8
Average flit latency = 24.8871
Maximum flit latency = 201
Slowest flit = 23993
Minimum fragmentation = 0
Average fragmentation = 0
Maximum fragmentation = 0
Minimum injected packet rate = 0.04815 (at node 10)
Average injected packet rate = 0.0503
Maximum injected packet rate = 0.05345 (at node 14)
Minimum accepted packet rate = 0.0482 (at node 10)
Average accepted packet rate = 0.0503156
Maximum accepted packet rate = 0.0535 (at node 11)
Minimum injected flit rate = 0.04815 (at node 10)
Average injected flit rate = 0.0503
Maximum injected flit rate = 0.05345 (at node 14)
Minimum accepted flit rate = 0.0482 (at node 10)
Average accepted flit rate = 0.0503156
Maximum accepted flit rate = 0.0535 (at node 11)
Total number of injected packets = 16096
Total number of injected flits = 16096
Average injected packet length = 1
Total number of accepted packets = 16101
Total number of accepted flits = 16101
Average accepted packet length = 1
Total in-flight flits = 11 (11 measured)
===== Time: 60000 =====
Class 0:
Minimum packet latency = 7
Average packet latency = 23.6046
Maximum packet latency = 200
Minimum network latency = 8
Average network latency = 24.6046
Maximum network latency = 201
Slowest packet = 23993
Minimum flit latency = 8
Average flit latency = 24.6065
Maximum flit latency = 201
Slowest flit = 23993
Minimum fragmentation = 0
Average fragmentation = 0
Maximum fragmentation = 0
Minimum injected packet rate = 0.0482 (at node 10)
Average injected packet rate = 0.0501896
Maximum injected packet rate = 0.0528667 (at node 14)
Minimum accepted packet rate = 0.0482333 (at node 10)
Average accepted packet rate = 0.0501792
Maximum accepted packet rate = 0.0528667 (at node 11)
Minimum injected flit rate = 0.0482 (at node 10)
Average injected flit rate = 0.0501896
Maximum injected flit rate = 0.0528667 (at node 14)
Minimum accepted flit rate = 0.0482333 (at node 10)
Average accepted flit rate = 0.0501792
Maximum accepted flit rate = 0.0528667 (at node 11)
Total number of injected packets = 24091
Total number of injected flits = 24091
Average injected packet length = 1
Total number of accepted packets = 24086
Total number of accepted flits = 24086
Average accepted packet length = 1
Total in-flight flits = 21 (21 measured)
Draining remaining packets ...
Class 0:
Remaining flits: 48009 48010 48016 48019 48020 48023 48025 48026 48029 48030 [...] (14 flits)
Measured flits: 48009 48010 48016 48019 48020 48023 48025 48026 48029 48030 [...] (14 flits)
Class 0:
Remaining flits: 48032 48034 48036 (3 flits)
Measured flits: 48032 48034 48036 (3 flits)
Class 0:
Remaining flits: 48034 (1 flits)
Measured flits: 48034 (1 flits)
Class 0:
Remaining flits: (0 flits)
Measured flits: (0 flits)
Class 0:
Remaining flits: (0 flits)
Measured flits: (0 flits)
Class 0:
Remaining flits: (0 flits)
Measured flits: (0 flits)
Class 0:
Remaining flits: (0 flits)
Measured flits: (0 flits)
Class 0:
Remaining flits: (0 flits)
Measured flits: (0 flits)
Class 0:
Remaining flits: (0 flits)
Measured flits: (0 flits)
Class 0:
Remaining flits: (0 flits)
Measured flits: (0 flits)
Class 0:
Remaining flits: (0 flits)
Measured flits: (0 flits)
Class 0:
Remaining flits: (0 flits)
Measured flits: (0 flits)
Class 0:
Remaining flits: (0 flits)
Measured flits: (0 flits)
Class 0:
Remaining flits: (0 flits)
Measured flits: (0 flits)
Class 0:
Remaining flits: (0 flits)
Measured flits: (0 flits)
Class 0:
Remaining flits: (0 flits)
Measured flits: (0 flits)
Class 0:
Remaining flits: (0 flits)
Measured flits: (0 flits)
Class 0:
Remaining flits: (0 flits)
Measured flits: (0 flits)
Class 0:
Remaining flits: (0 flits)
Measured flits: (0 flits)
Class 0:
Remaining flits: (0 flits)
Measured flits: (0 flits)
Class 0:
Remaining flits: (0 flits)
Measured flits: (0 flits)
Class 0:
Remaining flits: (0 flits)
Measured flits: (0 flits)
Class 0:
Remaining flits: (0 flits)
Measured flits: (0 flits)
Class 0:
Remaining flits: (0 flits)
Measured flits: (0 flits)
Class 0:
Remaining flits: (0 flits)
Measured flits: (0 flits)
Class 0:
Remaining flits: (0 flits)
Measured flits: (0 flits)
Class 0:
Remaining flits: (0 flits)
Measured flits: (0 flits)
Class 0:
Remaining flits: (0 flits)
Measured flits: (0 flits)
Class 0:
Remaining flits: (0 flits)
Measured flits: (0 flits)
Class 0:
Remaining flits: (0 flits)
Measured flits: (0 flits)
Class 0:
Remaining flits: (0 flits)
Measured flits: (0 flits)
Class 0:
Remaining flits: (0 flits)
Measured flits: (0 flits)
Class 0:
Remaining flits: (0 flits)
Measured flits: (0 flits)
Class 0:
Remaining flits: (0 flits)
Measured flits: (0 flits)
Class 0:
Remaining flits: (0 flits)
Measured flits: (0 flits)
Class 0:
Remaining flits: (0 flits)
Measured flits: (0 flits)
Class 0:
Remaining flits: (0 flits)
Measured flits: (0 flits)
Class 0:
Remaining flits: (0 flits)
Measured flits: (0 flits)
Class 0:
Remaining flits: (0 flits)
Measured flits: (0 flits)
Class 0:
Remaining flits: (0 flits)
Measured flits: (0 flits)
Class 0:
Remaining flits: (0 flits)
Measured flits: (0 flits)
Class 0:
Remaining flits: (0 flits)
Measured flits: (0 flits)
Class 0:
Remaining flits: (0 flits)
Measured flits: (0 flits)
Class 0:
Remaining flits: (0 flits)
Measured flits: (0 flits)
Class 0:
Remaining flits: (0 flits)
Measured flits: (0 flits)
Class 0:
Remaining flits: (0 flits)
Measured flits: (0 flits)
Class 0:
Remaining flits: (0 flits)
Measured flits: (0 flits)
Class 0:
Remaining flits: (0 flits)
Measured flits: (0 flits)
Class 0:
Remaining flits: (0 flits)
Measured flits: (0 flits)
Class 0:
Remaining flits: (0 flits)
Measured flits: (0 flits)
Class 0:
Remaining flits: (0 flits)
Measured flits: (0 flits)
Class 0:
Remaining flits: (0 flits)
Measured flits: (0 flits)
Class 0:
Remaining flits: (0 flits)
Measured flits: (0 flits)
Class 0:
Remaining flits: (0 flits)
Measured flits: (0 flits)
Class 0:
Remaining flits: (0 flits)
Measured flits: (0 flits)
Class 0:
Remaining flits: (0 flits)
Measured flits: (0 flits)
Class 0:
Remaining flits: (0 flits)
Measured flits: (0 flits)
Class 0:
Remaining flits: (0 flits)
Measured flits: (0 flits)
Class 0:
Remaining flits: (0 flits)
Measured flits: (0 flits)
Class 0:
Remaining flits: (0 flits)
Measured flits: (0 flits)
Class 0:
Remaining flits: (0 flits)
Measured flits: (0 flits)
Class 0:
Remaining flits: (0 flits)
Measured flits: (0 flits)
Class 0:
Remaining flits: (0 flits)
Measured flits: (0 flits)
Class 0:
Remaining flits: (0 flits)
Measured flits: (0 flits)
Class 0:
Remaining flits: (0 flits)
Measured flits: (0 flits)
Class 0:
Remaining flits: (0 flits)
Measured flits: (0 flits)
Class 0:
Remaining flits: (0 flits)
Measured flits: (0 flits)
Class 0:
Remaining flits: (0 flits)
Measured flits: (0 flits)
Class 0:
Remaining flits: (0 flits)
Measured flits: (0 flits)
Class 0:
Remaining flits: (0 flits)
Measured flits: (0 flits)
Class 0:
Remaining flits: (0 flits)
Measured flits: (0 flits)
Class 0:
Remaining flits: (0 flits)
Measured flits: (0 flits)
Class 0:
Remaining flits: (0 flits)
Measured flits: (0 flits)
Class 0:
Remaining flits: (0 flits)
Measured flits: (0 flits)
Class 0:
Remaining flits: (0 flits)
Measured flits: (0 flits)
Class 0:
Remaining flits: (0 flits)
Measured flits: (0 flits)
Class 0:
Remaining flits: (0 flits)
Measured flits: (0 flits)
Class 0:
Remaining flits: (0 flits)
Measured flits: (0 flits)
Class 0:
Remaining flits: (0 flits)
Measured flits: (0 flits)
Class 0:
Remaining flits: (0 flits)
Measured flits: (0 flits)
Class 0:
Remaining flits: (0 flits)
Measured flits: (0 flits)
Class 0:
Remaining flits: (0 flits)
Measured flits: (0 flits)
Class 0:
Remaining flits: (0 flits)
Measured flits: (0 flits)
Class 0:
Remaining flits: (0 flits)
Measured flits: (0 flits)
Class 0:
Remaining flits: (0 flits)
Measured flits: (0 flits)
Class 0:
Remaining flits: (0 flits)
Measured flits: (0 flits)
Class 0:
Remaining flits: (0 flits)
Measured flits: (0 flits)
Class 0:
Remaining flits: (0 flits)
Measured flits: (0 flits)
Class 0:
Remaining flits: (0 flits)
Measured flits: (0 flits)
Class 0:
Remaining flits: (0 flits)
Measured flits: (0 flits)
Class 0:
Remaining flits: (0 flits)
Measured flits: (0 flits)
Class 0:
Remaining flits: (0 flits)
Measured flits: (0 flits)
Class 0:
Remaining flits: (0 flits)
Measured flits: (0 flits)
Class 0:
Remaining flits: (0 flits)
Measured flits: (0 flits)
Class 0:
Remaining flits: (0 flits)
Measured flits: (0 flits)
Class 0:
Remaining flits: (0 flits)
Measured flits: (0 flits)
Class 0:
Remaining flits: (0 flits)
Measured flits: (0 flits)
Class 0:
Remaining flits: (0 flits)
Measured flits: (0 flits)
Class 0:
Remaining flits: (0 flits)
Measured flits: (0 flits)
Class 0:
Remaining flits: (0 flits)
Measured flits: (0 flits)
Class 0:
Remaining flits: (0 flits)
Measured flits: (0 flits)
Time taken is 61000 cycles
====== Traffic class 0 ======

Total number of flits generated = 48037, changed lanes = 45084
Overall minimum packet latency = 7 (1 samples)
Overall average packet latency = 23.6093 (1 samples)
Overall maximum packet latency = 200 (1 samples)
Overall minimum network latency = 8 (1 samples)
Overall average network latency = 24.6093 (1 samples)
Overall maximum network latency = 201 (1 samples)
Overall minimum flit latency = 8 (1 samples)
Overall average flit latency = 24.6112 (1 samples)
Overall maximum flit latency = 201 (1 samples)
Overall minimum fragmentation = 0 (1 samples)
Overall average fragmentation = 0 (1 samples)
Overall maximum fragmentation = 0 (1 samples)
Overall minimum injected packet rate = 0.0482 (1 samples)
Overall average injected packet rate = 0.0501896 (1 samples)
Overall maximum injected packet rate = 0.0528667 (1 samples)
Overall minimum accepted packet rate = 0.0482333 (1 samples)
Overall average accepted packet rate = 0.0501792 (1 samples)
Overall maximum accepted packet rate = 0.0528667 (1 samples)
Overall minimum injected flit rate = 0.0482 (1 samples)
Overall average injected flit rate = 0.0501896 (1 samples)
Overall maximum injected flit rate = 0.0528667 (1 samples)
Overall minimum accepted flit rate = 0.0482333 (1 samples)
Overall average accepted flit rate = 0.0501792 (1 samples)
Overall maximum accepted flit rate = 0.0528667 (1 samples)
Overall average injected packet size = 1 (1 samples)
Overall average accepted packet size = 1 (1 samples)
Overall average hops = 3.00955 (1 samples)
Overall throughput of the network (flits/cycle) = 1.60123
Overall throughput of the network (packets/cycle) = 1.60123
Total run time 68.3409
