make: Nothing to be done for `all'.
Master: Running timer....
Master: Running SRC....
BEGIN Configuration File: ./examples/bitrev
// Topology

topology = mesh;
k = 4;
n = 2;

// Routing
routing_function = dor;

// Flow control
num_vcs     = 4;
vc_buf_size = 4;
wait_for_tail_credit = 0;

// Router architecture
vc_allocator = islip;
sw_allocator = islip;
alloc_iters  = 1;

credit_delay   = 1;
routing_delay  = 1;
vc_alloc_delay = 1;
sw_alloc_delay = 1;

input_speedup     = 1;
output_speedup    = 1;
internal_speedup  = 1.0;

vc_busy_when_full = 0;

// Traffic
traffic = uniform;
packet_size = 1;

// Simulation
sim_type = throughput;

injection_rate = 0.09;

END Configuration File: ./examples/bitrev
===== Time: 10000 =====
Class 0:
Minimum packet latency = 7
Average packet latency = 28.6888
Maximum packet latency = 158
Minimum network latency = 8
Average network latency = 29.6888
Maximum network latency = 159
Slowest packet = 11738
Minimum flit latency = 8
Average flit latency = 29.6888
Maximum flit latency = 159
Slowest flit = 11738
Minimum fragmentation = 0
Average fragmentation = 0
Maximum fragmentation = 0
Minimum injected packet rate = 0.0857 (at node 7)
Average injected packet rate = 0.088775
Maximum injected packet rate = 0.0925 (at node 6)
Minimum accepted packet rate = 0.08 (at node 4)
Average accepted packet rate = 0.0885563
Maximum accepted packet rate = 0.0953 (at node 8)
Minimum injected flit rate = 0.0857 (at node 7)
Average injected flit rate = 0.088775
Maximum injected flit rate = 0.0925 (at node 6)
Minimum accepted flit rate = 0.08 (at node 4)
Average accepted flit rate = 0.0885563
Maximum accepted flit rate = 0.0953 (at node 8)
Total number of injected packets = 14204
Total number of injected flits = 14204
Average injected packet length = 1
Total number of accepted packets = 14169
Total number of accepted flits = 14169
Average accepted packet length = 1
Total in-flight flits = 35 (0 measured)
===== Time: 20000 =====
Class 0:
Minimum packet latency = 7
Average packet latency = 28.8332
Maximum packet latency = 166
Minimum network latency = 8
Average network latency = 29.8332
Maximum network latency = 167
Slowest packet = 20260
Minimum flit latency = 8
Average flit latency = 29.8332
Maximum flit latency = 167
Slowest flit = 20260
Minimum fragmentation = 0
Average fragmentation = 0
Maximum fragmentation = 0
Minimum injected packet rate = 0.0874 (at node 14)
Average injected packet rate = 0.0892875
Maximum injected packet rate = 0.0922 (at node 10)
Minimum accepted packet rate = 0.08045 (at node 4)
Average accepted packet rate = 0.0891406
Maximum accepted packet rate = 0.09265 (at node 8)
Minimum injected flit rate = 0.0874 (at node 14)
Average injected flit rate = 0.0892875
Maximum injected flit rate = 0.0922 (at node 10)
Minimum accepted flit rate = 0.08045 (at node 4)
Average accepted flit rate = 0.0891406
Maximum accepted flit rate = 0.09265 (at node 8)
Total number of injected packets = 28572
Total number of injected flits = 28572
Average injected packet length = 1
Total number of accepted packets = 28525
Total number of accepted flits = 28525
Average accepted packet length = 1
Total in-flight flits = 47 (0 measured)
===== Time: 30000 =====
Class 0:
Minimum packet latency = 7
Average packet latency = 28.7962
Maximum packet latency = 160
Minimum network latency = 8
Average network latency = 29.7962
Maximum network latency = 161
Slowest packet = 42321
Minimum flit latency = 8
Average flit latency = 29.7962
Maximum flit latency = 161
Slowest flit = 28816
Minimum fragmentation = 0
Average fragmentation = 0
Maximum fragmentation = 0
Minimum injected packet rate = 0.0847 (at node 6)
Average injected packet rate = 0.0889313
Maximum injected packet rate = 0.0932 (at node 10)
Minimum accepted packet rate = 0.0831 (at node 0)
Average accepted packet rate = 0.088975
Maximum accepted packet rate = 0.0963 (at node 7)
Minimum injected flit rate = 0.0847 (at node 6)
Average injected flit rate = 0.0889313
Maximum injected flit rate = 0.0932 (at node 10)
Minimum accepted flit rate = 0.0831 (at node 0)
Average accepted flit rate = 0.088975
Maximum accepted flit rate = 0.0963 (at node 7)
Total number of injected packets = 14229
Total number of injected flits = 14229
Average injected packet length = 1
Total number of accepted packets = 14236
Total number of accepted flits = 14236
Average accepted packet length = 1
Total in-flight flits = 40 (0 measured)
===== Time: 40000 =====
Class 0:
Minimum packet latency = 7
Average packet latency = 28.9351
Maximum packet latency = 181
Minimum network latency = 8
Average network latency = 29.9351
Maximum network latency = 182
Slowest packet = 50374
Minimum flit latency = 8
Average flit latency = 29.9386
Maximum flit latency = 182
Slowest flit = 50374
Minimum fragmentation = 0
Average fragmentation = 0
Maximum fragmentation = 0
Minimum injected packet rate = 0.0865 (at node 6)
Average injected packet rate = 0.0902
Maximum injected packet rate = 0.096 (at node 14)
Minimum accepted packet rate = 0.0856 (at node 12)
Average accepted packet rate = 0.0901688
Maximum accepted packet rate = 0.0937 (at node 6)
Minimum injected flit rate = 0.0865 (at node 6)
Average injected flit rate = 0.0902
Maximum injected flit rate = 0.096 (at node 14)
Minimum accepted flit rate = 0.0856 (at node 12)
Average accepted flit rate = 0.0901688
Maximum accepted flit rate = 0.0937 (at node 6)
Total number of injected packets = 14432
Total number of injected flits = 14432
Average injected packet length = 1
Total number of accepted packets = 14427
Total number of accepted flits = 14427
Average accepted packet length = 1
Total in-flight flits = 45 (45 measured)
===== Time: 50000 =====
Class 0:
Minimum packet latency = 7
Average packet latency = 28.9707
Maximum packet latency = 191
Minimum network latency = 8
Average network latency = 29.9707
Maximum network latency = 192
Slowest packet = 67988
Minimum flit latency = 8
Average flit latency = 29.9723
Maximum flit latency = 192
Slowest flit = 67988
Minimum fragmentation = 0
Average fragmentation = 0
Maximum fragmentation = 0
Minimum injected packet rate = 0.08685 (at node 2)
Average injected packet rate = 0.0903719
Maximum injected packet rate = 0.09675 (at node 14)
Minimum accepted packet rate = 0.08765 (at node 12)
Average accepted packet rate = 0.0903969
Maximum accepted packet rate = 0.0921 (at node 9)
Minimum injected flit rate = 0.08685 (at node 2)
Average injected flit rate = 0.0903719
Maximum injected flit rate = 0.09675 (at node 14)
Minimum accepted flit rate = 0.08765 (at node 12)
Average accepted flit rate = 0.0903969
Maximum accepted flit rate = 0.0921 (at node 9)
Total number of injected packets = 28919
Total number of injected flits = 28919
Average injected packet length = 1
Total number of accepted packets = 28927
Total number of accepted flits = 28927
Average accepted packet length = 1
Total in-flight flits = 32 (32 measured)
===== Time: 60000 =====
Class 0:
Minimum packet latency = 7
Average packet latency = 28.8443
Maximum packet latency = 203
Minimum network latency = 8
Average network latency = 29.8443
Maximum network latency = 204
Slowest packet = 85180
Minimum flit latency = 8
Average flit latency = 29.8455
Maximum flit latency = 204
Slowest flit = 85180
Minimum fragmentation = 0
Average fragmentation = 0
Maximum fragmentation = 0
Minimum injected packet rate = 0.0876 (at node 10)
Average injected packet rate = 0.0902333
Maximum injected packet rate = 0.0949667 (at node 14)
Minimum accepted packet rate = 0.0873 (at node 12)
Average accepted packet rate = 0.0902312
Maximum accepted packet rate = 0.0930333 (at node 9)
Minimum injected flit rate = 0.0876 (at node 10)
Average injected flit rate = 0.0902333
Maximum injected flit rate = 0.0949667 (at node 14)
Minimum accepted flit rate = 0.0873 (at node 12)
Average accepted flit rate = 0.0902312
Maximum accepted flit rate = 0.0930333 (at node 9)
Total number of injected packets = 43312
Total number of injected flits = 43312
Average injected packet length = 1
Total number of accepted packets = 43311
Total number of accepted flits = 43311
Average accepted packet length = 1
Total in-flight flits = 41 (41 measured)
Draining remaining packets ...
Class 0:
Remaining flits: 86061 86073 86079 86080 86085 86087 86088 86091 86093 86094 [...] (24 flits)
Measured flits: 86061 86073 86079 86080 86085 86087 86088 86091 86093 86094 [...] (24 flits)
Class 0:
Remaining flits: 86079 86091 86093 86096 86100 86102 86104 86107 86108 86109 [...] (13 flits)
Measured flits: 86079 86091 86093 86096 86100 86102 86104 86107 86108 86109 [...] (13 flits)
Class 0:
Remaining flits: 86091 86093 86108 86109 86111 86112 (6 flits)
Measured flits: 86091 86093 86108 86109 86111 86112 (6 flits)
Class 0:
Remaining flits: 86093 (1 flits)
Measured flits: 86093 (1 flits)
Class 0:
Remaining flits: 86093 (1 flits)
Measured flits: 86093 (1 flits)
Class 0:
Remaining flits: 86093 (1 flits)
Measured flits: 86093 (1 flits)
Class 0:
Remaining flits: 86093 (1 flits)
Measured flits: 86093 (1 flits)
Class 0:
Remaining flits: 86093 (1 flits)
Measured flits: 86093 (1 flits)
Class 0:
Remaining flits: 86093 (1 flits)
Measured flits: 86093 (1 flits)
Class 0:
Remaining flits: 86093 (1 flits)
Measured flits: 86093 (1 flits)
Class 0:
Remaining flits: 86093 (1 flits)
Measured flits: 86093 (1 flits)
Class 0:
Remaining flits: 86093 (1 flits)
Measured flits: 86093 (1 flits)
Class 0:
Remaining flits: 86093 (1 flits)
Measured flits: 86093 (1 flits)
Class 0:
Remaining flits: 86093 (1 flits)
Measured flits: 86093 (1 flits)
Class 0:
Remaining flits: 86093 (1 flits)
Measured flits: 86093 (1 flits)
Class 0:
Remaining flits: 86093 (1 flits)
Measured flits: 86093 (1 flits)
Class 0:
Remaining flits: 86093 (1 flits)
Measured flits: 86093 (1 flits)
Class 0:
Remaining flits: 86093 (1 flits)
Measured flits: 86093 (1 flits)
Class 0:
Remaining flits: 86093 (1 flits)
Measured flits: 86093 (1 flits)
Class 0:
Remaining flits: 86093 (1 flits)
Measured flits: 86093 (1 flits)
Class 0:
Remaining flits: 86093 (1 flits)
Measured flits: 86093 (1 flits)
Class 0:
Remaining flits: 86093 (1 flits)
Measured flits: 86093 (1 flits)
Class 0:
Remaining flits: 86093 (1 flits)
Measured flits: 86093 (1 flits)
Class 0:
Remaining flits: 86093 (1 flits)
Measured flits: 86093 (1 flits)
Class 0:
Remaining flits: 86093 (1 flits)
Measured flits: 86093 (1 flits)
Class 0:
Remaining flits: 86093 (1 flits)
Measured flits: 86093 (1 flits)
Class 0:
Remaining flits: 86093 (1 flits)
Measured flits: 86093 (1 flits)
Class 0:
Remaining flits: 86093 (1 flits)
Measured flits: 86093 (1 flits)
Class 0:
Remaining flits: 86093 (1 flits)
Measured flits: 86093 (1 flits)
Class 0:
Remaining flits: 86093 (1 flits)
Measured flits: 86093 (1 flits)
Class 0:
Remaining flits: 86093 (1 flits)
Measured flits: 86093 (1 flits)
Class 0:
Remaining flits: 86093 (1 flits)
Measured flits: 86093 (1 flits)
Class 0:
Remaining flits: 86093 (1 flits)
Measured flits: 86093 (1 flits)
Class 0:
Remaining flits: 86093 (1 flits)
Measured flits: 86093 (1 flits)
Class 0:
Remaining flits: 86093 (1 flits)
Measured flits: 86093 (1 flits)
Class 0:
Remaining flits: 86093 (1 flits)
Measured flits: 86093 (1 flits)
Class 0:
Remaining flits: 86093 (1 flits)
Measured flits: 86093 (1 flits)
Class 0:
Remaining flits: 86093 (1 flits)
Measured flits: 86093 (1 flits)
Class 0:
Remaining flits: 86093 (1 flits)
Measured flits: 86093 (1 flits)
Class 0:
Remaining flits: 86093 (1 flits)
Measured flits: 86093 (1 flits)
Class 0:
Remaining flits: 86093 (1 flits)
Measured flits: 86093 (1 flits)
Class 0:
Remaining flits: 86093 (1 flits)
Measured flits: 86093 (1 flits)
Class 0:
Remaining flits: 86093 (1 flits)
Measured flits: 86093 (1 flits)
Class 0:
Remaining flits: 86093 (1 flits)
Measured flits: 86093 (1 flits)
Class 0:
Remaining flits: 86093 (1 flits)
Measured flits: 86093 (1 flits)
Class 0:
Remaining flits: 86093 (1 flits)
Measured flits: 86093 (1 flits)
Class 0:
Remaining flits: 86093 (1 flits)
Measured flits: 86093 (1 flits)
Class 0:
Remaining flits: 86093 (1 flits)
Measured flits: 86093 (1 flits)
Class 0:
Remaining flits: 86093 (1 flits)
Measured flits: 86093 (1 flits)
Class 0:
Remaining flits: 86093 (1 flits)
Measured flits: 86093 (1 flits)
Class 0:
Remaining flits: 86093 (1 flits)
Measured flits: 86093 (1 flits)
Class 0:
Remaining flits: 86093 (1 flits)
Measured flits: 86093 (1 flits)
Class 0:
Remaining flits: 86093 (1 flits)
Measured flits: 86093 (1 flits)
Class 0:
Remaining flits: 86093 (1 flits)
Measured flits: 86093 (1 flits)
Class 0:
Remaining flits: 86093 (1 flits)
Measured flits: 86093 (1 flits)
Class 0:
Remaining flits: 86093 (1 flits)
Measured flits: 86093 (1 flits)
Class 0:
Remaining flits: 86093 (1 flits)
Measured flits: 86093 (1 flits)
Class 0:
Remaining flits: 86093 (1 flits)
Measured flits: 86093 (1 flits)
Class 0:
Remaining flits: 86093 (1 flits)
Measured flits: 86093 (1 flits)
Class 0:
Remaining flits: 86093 (1 flits)
Measured flits: 86093 (1 flits)
Class 0:
Remaining flits: 86093 (1 flits)
Measured flits: 86093 (1 flits)
Class 0:
Remaining flits: 86093 (1 flits)
Measured flits: 86093 (1 flits)
Class 0:
Remaining flits: 86093 (1 flits)
Measured flits: 86093 (1 flits)
Class 0:
Remaining flits: 86093 (1 flits)
Measured flits: 86093 (1 flits)
Class 0:
Remaining flits: 86093 (1 flits)
Measured flits: 86093 (1 flits)
Class 0:
Remaining flits: 86093 (1 flits)
Measured flits: 86093 (1 flits)
Class 0:
Remaining flits: 86093 (1 flits)
Measured flits: 86093 (1 flits)
Class 0:
Remaining flits: 86093 (1 flits)
Measured flits: 86093 (1 flits)
Class 0:
Remaining flits: 86093 (1 flits)
Measured flits: 86093 (1 flits)
Class 0:
Remaining flits: 86093 (1 flits)
Measured flits: 86093 (1 flits)
Class 0:
Remaining flits: 86093 (1 flits)
Measured flits: 86093 (1 flits)
Class 0:
Remaining flits: 86093 (1 flits)
Measured flits: 86093 (1 flits)
Class 0:
Remaining flits: 86093 (1 flits)
Measured flits: 86093 (1 flits)
Class 0:
Remaining flits: 86093 (1 flits)
Measured flits: 86093 (1 flits)
Class 0:
Remaining flits: 86093 (1 flits)
Measured flits: 86093 (1 flits)
Class 0:
Remaining flits: 86093 (1 flits)
Measured flits: 86093 (1 flits)
Class 0:
Remaining flits: 86093 (1 flits)
Measured flits: 86093 (1 flits)
Class 0:
Remaining flits: 86093 (1 flits)
Measured flits: 86093 (1 flits)
Class 0:
Remaining flits: 86093 (1 flits)
Measured flits: 86093 (1 flits)
Class 0:
Remaining flits: 86093 (1 flits)
Measured flits: 86093 (1 flits)
Class 0:
Remaining flits: 86093 (1 flits)
Measured flits: 86093 (1 flits)
Class 0:
Remaining flits: 86093 (1 flits)
Measured flits: 86093 (1 flits)
Class 0:
Remaining flits: 86093 (1 flits)
Measured flits: 86093 (1 flits)
Class 0:
Remaining flits: 86093 (1 flits)
Measured flits: 86093 (1 flits)
Class 0:
Remaining flits: 86093 (1 flits)
Measured flits: 86093 (1 flits)
Class 0:
Remaining flits: 86093 (1 flits)
Measured flits: 86093 (1 flits)
Class 0:
Remaining flits: 86093 (1 flits)
Measured flits: 86093 (1 flits)
Class 0:
Remaining flits: 86093 (1 flits)
Measured flits: 86093 (1 flits)
Class 0:
Remaining flits: 86093 (1 flits)
Measured flits: 86093 (1 flits)
Class 0:
Remaining flits: 86093 (1 flits)
Measured flits: 86093 (1 flits)
Class 0:
Remaining flits: 86093 (1 flits)
Measured flits: 86093 (1 flits)
Class 0:
Remaining flits: 86093 (1 flits)
Measured flits: 86093 (1 flits)
Class 0:
Remaining flits: 86093 (1 flits)
Measured flits: 86093 (1 flits)
Class 0:
Remaining flits: 86093 (1 flits)
Measured flits: 86093 (1 flits)
Class 0:
Remaining flits: 86093 (1 flits)
Measured flits: 86093 (1 flits)
Class 0:
Remaining flits: 86093 (1 flits)
Measured flits: 86093 (1 flits)
Class 0:
Remaining flits: 86093 (1 flits)
Measured flits: 86093 (1 flits)
Class 0:
Remaining flits: 86093 (1 flits)
Measured flits: 86093 (1 flits)
Class 0:
Remaining flits: 86093 (1 flits)
Measured flits: 86093 (1 flits)
Class 0:
Remaining flits: 86093 (1 flits)
Measured flits: 86093 (1 flits)
Class 0:
Remaining flits: 86093 (1 flits)
Measured flits: 86093 (1 flits)
Time taken is 61000 cycles
====== Traffic class 0 ======

Total number of flits generated = 86113, changed lanes = 81987
Overall minimum packet latency = 7 (1 samples)
Overall average packet latency = 28.8462 (1 samples)
Overall maximum packet latency = 203 (1 samples)
Overall minimum network latency = 8 (1 samples)
Overall average network latency = 29.8462 (1 samples)
Overall maximum network latency = 204 (1 samples)
Overall minimum flit latency = 8 (1 samples)
Overall average flit latency = 29.8474 (1 samples)
Overall maximum flit latency = 204 (1 samples)
Overall minimum fragmentation = 0 (1 samples)
Overall average fragmentation = 0 (1 samples)
Overall maximum fragmentation = 0 (1 samples)
Overall minimum injected packet rate = 0.0876 (1 samples)
Overall average injected packet rate = 0.0902333 (1 samples)
Overall maximum injected packet rate = 0.0949667 (1 samples)
Overall minimum accepted packet rate = 0.0873 (1 samples)
Overall average accepted packet rate = 0.0902312 (1 samples)
Overall maximum accepted packet rate = 0.0930333 (1 samples)
Overall minimum injected flit rate = 0.0876 (1 samples)
Overall average injected flit rate = 0.0902333 (1 samples)
Overall maximum injected flit rate = 0.0949667 (1 samples)
Overall minimum accepted flit rate = 0.0873 (1 samples)
Overall average accepted flit rate = 0.0902312 (1 samples)
Overall maximum accepted flit rate = 0.0930333 (1 samples)
Overall average injected packet size = 1 (1 samples)
Overall average accepted packet size = 1 (1 samples)
Overall average hops = 3.49955 (1 samples)
Overall throughput of the network (flits/cycle) = 2.8704
Overall throughput of the network (packets/cycle) = 2.8704
Total run time 129.428
