make: Nothing to be done for `all'.
Master: Running timer....
Master: Running SRC....
BEGIN Configuration File: ./examples/bitrev
// Topology

topology = mesh;
k = 4;
n = 2;

// Routing
routing_function = dor;

// Flow control
num_vcs     = 4;
vc_buf_size = 4;
wait_for_tail_credit = 0;

// Router architecture
vc_allocator = islip;
sw_allocator = islip;
alloc_iters  = 1;

credit_delay   = 1;
routing_delay  = 1;
vc_alloc_delay = 1;
sw_alloc_delay = 1;

input_speedup     = 1;
output_speedup    = 1;
internal_speedup  = 1.0;

vc_busy_when_full = 0;

// Traffic
traffic = uniform;
packet_size = 1;

// Simulation
sim_type = throughput;

injection_rate = 0.27;

END Configuration File: ./examples/bitrev
===== Time: 10000 =====
Class 0:
Minimum packet latency = 7
Average packet latency = 32.7911
Maximum packet latency = 119
Minimum network latency = 8
Average network latency = 33.7911
Maximum network latency = 120
Slowest packet = 29078
Minimum flit latency = 8
Average flit latency = 33.7911
Maximum flit latency = 120
Slowest flit = 29078
Minimum fragmentation = 0
Average fragmentation = 0
Maximum fragmentation = 0
Minimum injected packet rate = 0.2616 (at node 4)
Average injected packet rate = 0.269106
Maximum injected packet rate = 0.2748 (at node 6)
Minimum accepted packet rate = 0.2526 (at node 4)
Average accepted packet rate = 0.268137
Maximum accepted packet rate = 0.281 (at node 7)
Minimum injected flit rate = 0.2616 (at node 4)
Average injected flit rate = 0.269106
Maximum injected flit rate = 0.2748 (at node 6)
Minimum accepted flit rate = 0.2526 (at node 4)
Average accepted flit rate = 0.268137
Maximum accepted flit rate = 0.281 (at node 7)
Total number of injected packets = 43057
Total number of injected flits = 43057
Average injected packet length = 1
Total number of accepted packets = 42902
Total number of accepted flits = 42902
Average accepted packet length = 1
Total in-flight flits = 155 (0 measured)
===== Time: 20000 =====
Class 0:
Minimum packet latency = 7
Average packet latency = 33.2338
Maximum packet latency = 119
Minimum network latency = 8
Average network latency = 34.2338
Maximum network latency = 120
Slowest packet = 29078
Minimum flit latency = 8
Average flit latency = 34.2338
Maximum flit latency = 120
Slowest flit = 29078
Minimum fragmentation = 0
Average fragmentation = 0
Maximum fragmentation = 0
Minimum injected packet rate = 0.26555 (at node 14)
Average injected packet rate = 0.269025
Maximum injected packet rate = 0.2751 (at node 10)
Minimum accepted packet rate = 0.26285 (at node 13)
Average accepted packet rate = 0.268612
Maximum accepted packet rate = 0.2771 (at node 7)
Minimum injected flit rate = 0.26555 (at node 14)
Average injected flit rate = 0.269025
Maximum injected flit rate = 0.2751 (at node 10)
Minimum accepted flit rate = 0.26285 (at node 13)
Average accepted flit rate = 0.268612
Maximum accepted flit rate = 0.2771 (at node 7)
Total number of injected packets = 86088
Total number of injected flits = 86088
Average injected packet length = 1
Total number of accepted packets = 85956
Total number of accepted flits = 85956
Average accepted packet length = 1
Total in-flight flits = 132 (0 measured)
===== Time: 30000 =====
Class 0:
Minimum packet latency = 7
Average packet latency = 32.8798
Maximum packet latency = 143
Minimum network latency = 8
Average network latency = 33.8798
Maximum network latency = 144
Slowest packet = 98534
Minimum flit latency = 8
Average flit latency = 33.8798
Maximum flit latency = 144
Slowest flit = 98534
Minimum fragmentation = 0
Average fragmentation = 0
Maximum fragmentation = 0
Minimum injected packet rate = 0.0517 (at node 3)
Average injected packet rate = 0.253806
Maximum injected packet rate = 0.2763 (at node 13)
Minimum accepted packet rate = 0.2494 (at node 13)
Average accepted packet rate = 0.253694
Maximum accepted packet rate = 0.2622 (at node 3)
Minimum injected flit rate = 0.0517 (at node 3)
Average injected flit rate = 0.253806
Maximum injected flit rate = 0.2763 (at node 13)
Minimum accepted flit rate = 0.2494 (at node 13)
Average accepted flit rate = 0.253694
Maximum accepted flit rate = 0.2622 (at node 3)
Total number of injected packets = 40609
Total number of injected flits = 40609
Average injected packet length = 1
Total number of accepted packets = 40591
Total number of accepted flits = 40591
Average accepted packet length = 1
Total in-flight flits = 152 (0 measured)
===== Time: 40000 =====
Class 0:
Minimum packet latency = 7
Average packet latency = 32.1657
Maximum packet latency = 190
Minimum network latency = 8
Average network latency = 33.1533
Maximum network latency = 191
Slowest packet = 159530
Minimum flit latency = 8
Average flit latency = 33.1785
Maximum flit latency = 191
Slowest flit = 159530
Minimum fragmentation = 0
Average fragmentation = 0
Maximum fragmentation = 0
Minimum injected packet rate = 0 (at node 0)
Average injected packet rate = 0.236613
Maximum injected packet rate = 0.2754 (at node 2)
Minimum accepted packet rate = 0.2244 (at node 10)
Average accepted packet rate = 0.236469
Maximum accepted packet rate = 0.2432 (at node 5)
Minimum injected flit rate = 0 (at node 0)
Average injected flit rate = 0.236613
Maximum injected flit rate = 0.2754 (at node 2)
Minimum accepted flit rate = 0.2244 (at node 10)
Average accepted flit rate = 0.236469
Maximum accepted flit rate = 0.2432 (at node 5)
Total number of injected packets = 37858
Total number of injected flits = 37858
Average injected packet length = 1
Total number of accepted packets = 37835
Total number of accepted flits = 37835
Average accepted packet length = 1
Total in-flight flits = 175 (131 measured)
===== Time: 50000 =====
Class 0:
Minimum packet latency = 7
Average packet latency = 32.0823
Maximum packet latency = 190
Minimum network latency = 8
Average network latency = 33.0761
Maximum network latency = 191
Slowest packet = 159530
Minimum flit latency = 8
Average flit latency = 33.0888
Maximum flit latency = 191
Slowest flit = 159530
Minimum fragmentation = 0
Average fragmentation = 0
Maximum fragmentation = 0
Minimum injected packet rate = 0 (at node 0)
Average injected packet rate = 0.235741
Maximum injected packet rate = 0.27585 (at node 12)
Minimum accepted packet rate = 0.22635 (at node 8)
Average accepted packet rate = 0.235725
Maximum accepted packet rate = 0.2447 (at node 5)
Minimum injected flit rate = 0 (at node 0)
Average injected flit rate = 0.235741
Maximum injected flit rate = 0.27585 (at node 12)
Minimum accepted flit rate = 0.22635 (at node 8)
Average accepted flit rate = 0.235725
Maximum accepted flit rate = 0.2447 (at node 5)
Total number of injected packets = 75437
Total number of injected flits = 75437
Average injected packet length = 1
Total number of accepted packets = 75432
Total number of accepted flits = 75432
Average accepted packet length = 1
Total in-flight flits = 157 (113 measured)
===== Time: 60000 =====
Class 0:
Minimum packet latency = 7
Average packet latency = 32.0548
Maximum packet latency = 190
Minimum network latency = 8
Average network latency = 33.0506
Maximum network latency = 191
Slowest packet = 159530
Minimum flit latency = 8
Average flit latency = 33.0593
Maximum flit latency = 191
Slowest flit = 159530
Minimum fragmentation = 0
Average fragmentation = 0
Maximum fragmentation = 0
Minimum injected packet rate = 0 (at node 0)
Average injected packet rate = 0.230281
Maximum injected packet rate = 0.274067 (at node 13)
Minimum accepted packet rate = 0.224067 (at node 8)
Average accepted packet rate = 0.230215
Maximum accepted packet rate = 0.234733 (at node 2)
Minimum injected flit rate = 0 (at node 0)
Average injected flit rate = 0.230281
Maximum injected flit rate = 0.274067 (at node 13)
Minimum accepted flit rate = 0.224067 (at node 8)
Average accepted flit rate = 0.230215
Maximum accepted flit rate = 0.234733 (at node 2)
Total number of injected packets = 110535
Total number of injected flits = 110535
Average injected packet length = 1
Total number of accepted packets = 110503
Total number of accepted flits = 110503
Average accepted packet length = 1
Total in-flight flits = 186 (142 measured)
===== Time: 70000 =====
Class 0:
Minimum packet latency = 7
Average packet latency = 32.0054
Maximum packet latency = 190
Minimum network latency = 8
Average network latency = 33.0021
Maximum network latency = 191
Slowest packet = 159530
Minimum flit latency = 8
Average flit latency = 33.0089
Maximum flit latency = 191
Slowest flit = 159530
Minimum fragmentation = 0
Average fragmentation = 0
Maximum fragmentation = 0
Minimum injected packet rate = 0 (at node 0)
Average injected packet rate = 0.223202
Maximum injected packet rate = 0.27405 (at node 12)
Minimum accepted packet rate = 0.21995 (at node 8)
Average accepted packet rate = 0.223128
Maximum accepted packet rate = 0.22655 (at node 5)
Minimum injected flit rate = 0 (at node 0)
Average injected flit rate = 0.223202
Maximum injected flit rate = 0.27405 (at node 12)
Minimum accepted flit rate = 0.21995 (at node 8)
Average accepted flit rate = 0.223128
Maximum accepted flit rate = 0.22655 (at node 5)
Total number of injected packets = 142849
Total number of injected flits = 142849
Average injected packet length = 1
Total number of accepted packets = 142802
Total number of accepted flits = 142802
Average accepted packet length = 1
Total in-flight flits = 201 (157 measured)
Draining remaining packets ...
Class 0:
Remaining flits: 94144 94204 94239 94257 94269 94351 94357 94374 94402 94414 [...] (166 flits)
Measured flits: 214917 214927 214937 215018 215038 215053 215079 215097 215105 215120 [...] (122 flits)
Class 0:
Remaining flits: 94144 94204 94239 94257 94269 94351 94357 94374 94402 94414 [...] (129 flits)
Measured flits: 214917 214927 214937 215018 215038 215053 215079 215097 215105 215120 [...] (85 flits)
Class 0:
Remaining flits: 94144 94204 94239 94257 94269 94351 94357 94374 94402 94414 [...] (118 flits)
Measured flits: 214917 214927 214937 215018 215038 215053 215079 215097 215105 215120 [...] (74 flits)
Class 0:
Remaining flits: 94144 94204 94239 94257 94269 94351 94357 94374 94402 94414 [...] (105 flits)
Measured flits: 214917 214927 214937 215018 215038 215053 215079 215097 215105 215120 [...] (61 flits)
Class 0:
Remaining flits: 94144 94204 94239 94257 94269 94351 94357 94374 94402 94414 [...] (101 flits)
Measured flits: 214917 214927 214937 215018 215038 215053 215079 215097 215105 215120 [...] (57 flits)
Class 0:
Remaining flits: 94144 94204 94239 94257 94269 94351 94357 94374 94402 94414 [...] (100 flits)
Measured flits: 214917 214927 214937 215018 215038 215053 215079 215097 215105 215120 [...] (56 flits)
Class 0:
Remaining flits: 94144 94204 94239 94257 94269 94351 94357 94374 94402 94414 [...] (100 flits)
Measured flits: 214917 214927 214937 215018 215038 215053 215079 215097 215105 215120 [...] (56 flits)
Class 0:
Remaining flits: 94144 94204 94239 94257 94269 94351 94357 94374 94402 94414 [...] (100 flits)
Measured flits: 214917 214927 214937 215018 215038 215053 215079 215097 215105 215120 [...] (56 flits)
Class 0:
Remaining flits: 94144 94204 94239 94257 94269 94351 94357 94374 94402 94414 [...] (100 flits)
Measured flits: 214917 214927 214937 215018 215038 215053 215079 215097 215105 215120 [...] (56 flits)
Class 0:
Remaining flits: 94144 94204 94239 94257 94269 94351 94357 94374 94402 94414 [...] (100 flits)
Measured flits: 214917 214927 214937 215018 215038 215053 215079 215097 215105 215120 [...] (56 flits)
Class 0:
Remaining flits: 94144 94204 94239 94257 94269 94351 94357 94374 94402 94414 [...] (100 flits)
Measured flits: 214917 214927 214937 215018 215038 215053 215079 215097 215105 215120 [...] (56 flits)
Class 0:
Remaining flits: 94144 94204 94239 94257 94269 94351 94357 94374 94402 94414 [...] (100 flits)
Measured flits: 214917 214927 214937 215018 215038 215053 215079 215097 215105 215120 [...] (56 flits)
Class 0:
Remaining flits: 94144 94204 94239 94257 94269 94351 94357 94374 94402 94414 [...] (100 flits)
Measured flits: 214917 214927 214937 215018 215038 215053 215079 215097 215105 215120 [...] (56 flits)
Class 0:
Remaining flits: 94144 94204 94239 94257 94269 94351 94357 94374 94402 94414 [...] (100 flits)
Measured flits: 214917 214927 214937 215018 215038 215053 215079 215097 215105 215120 [...] (56 flits)
Class 0:
Remaining flits: 94144 94204 94239 94257 94269 94351 94357 94374 94402 94414 [...] (100 flits)
Measured flits: 214917 214927 214937 215018 215038 215053 215079 215097 215105 215120 [...] (56 flits)
Class 0:
Remaining flits: 94144 94204 94239 94257 94269 94351 94357 94374 94402 94414 [...] (100 flits)
Measured flits: 214917 214927 214937 215018 215038 215053 215079 215097 215105 215120 [...] (56 flits)
Class 0:
Remaining flits: 94144 94204 94239 94257 94269 94351 94357 94374 94402 94414 [...] (100 flits)
Measured flits: 214917 214927 214937 215018 215038 215053 215079 215097 215105 215120 [...] (56 flits)
Class 0:
Remaining flits: 94144 94204 94239 94257 94269 94351 94357 94374 94402 94414 [...] (100 flits)
Measured flits: 214917 214927 214937 215018 215038 215053 215079 215097 215105 215120 [...] (56 flits)
Class 0:
Remaining flits: 94144 94204 94239 94257 94269 94351 94357 94374 94402 94414 [...] (100 flits)
Measured flits: 214917 214927 214937 215018 215038 215053 215079 215097 215105 215120 [...] (56 flits)
Class 0:
Remaining flits: 94144 94204 94239 94257 94269 94351 94357 94374 94402 94414 [...] (100 flits)
Measured flits: 214917 214927 214937 215018 215038 215053 215079 215097 215105 215120 [...] (56 flits)
Class 0:
Remaining flits: 94144 94204 94239 94257 94269 94351 94357 94374 94402 94414 [...] (100 flits)
Measured flits: 214917 214927 214937 215018 215038 215053 215079 215097 215105 215120 [...] (56 flits)
Class 0:
Remaining flits: 94144 94204 94239 94257 94269 94351 94357 94374 94402 94414 [...] (100 flits)
Measured flits: 214917 214927 214937 215018 215038 215053 215079 215097 215105 215120 [...] (56 flits)
Class 0:
Remaining flits: 94144 94204 94239 94257 94269 94351 94357 94374 94402 94414 [...] (100 flits)
Measured flits: 214917 214927 214937 215018 215038 215053 215079 215097 215105 215120 [...] (56 flits)
Class 0:
Remaining flits: 94144 94204 94239 94257 94269 94351 94357 94374 94402 94414 [...] (100 flits)
Measured flits: 214917 214927 214937 215018 215038 215053 215079 215097 215105 215120 [...] (56 flits)
Class 0:
Remaining flits: 94144 94204 94239 94257 94269 94351 94357 94374 94402 94414 [...] (100 flits)
Measured flits: 214917 214927 214937 215018 215038 215053 215079 215097 215105 215120 [...] (56 flits)
Class 0:
Remaining flits: 94144 94204 94239 94257 94269 94351 94357 94374 94402 94414 [...] (100 flits)
Measured flits: 214917 214927 214937 215018 215038 215053 215079 215097 215105 215120 [...] (56 flits)
Class 0:
Remaining flits: 94144 94204 94239 94257 94269 94351 94357 94374 94402 94414 [...] (100 flits)
Measured flits: 214917 214927 214937 215018 215038 215053 215079 215097 215105 215120 [...] (56 flits)
Class 0:
Remaining flits: 94144 94204 94239 94257 94269 94351 94357 94374 94402 94414 [...] (100 flits)
Measured flits: 214917 214927 214937 215018 215038 215053 215079 215097 215105 215120 [...] (56 flits)
Class 0:
Remaining flits: 94144 94204 94239 94257 94269 94351 94357 94374 94402 94414 [...] (100 flits)
Measured flits: 214917 214927 214937 215018 215038 215053 215079 215097 215105 215120 [...] (56 flits)
Class 0:
Remaining flits: 94144 94204 94239 94257 94269 94351 94357 94374 94402 94414 [...] (100 flits)
Measured flits: 214917 214927 214937 215018 215038 215053 215079 215097 215105 215120 [...] (56 flits)
Class 0:
Remaining flits: 94144 94204 94239 94257 94269 94351 94357 94374 94402 94414 [...] (100 flits)
Measured flits: 214917 214927 214937 215018 215038 215053 215079 215097 215105 215120 [...] (56 flits)
Class 0:
Remaining flits: 94144 94204 94239 94257 94269 94351 94357 94374 94402 94414 [...] (100 flits)
Measured flits: 214917 214927 214937 215018 215038 215053 215079 215097 215105 215120 [...] (56 flits)
Class 0:
Remaining flits: 94144 94204 94239 94257 94269 94351 94357 94374 94402 94414 [...] (100 flits)
Measured flits: 214917 214927 214937 215018 215038 215053 215079 215097 215105 215120 [...] (56 flits)
Class 0:
Remaining flits: 94144 94204 94239 94257 94269 94351 94357 94374 94402 94414 [...] (100 flits)
Measured flits: 214917 214927 214937 215018 215038 215053 215079 215097 215105 215120 [...] (56 flits)
Class 0:
Remaining flits: 94144 94204 94239 94257 94269 94351 94357 94374 94402 94414 [...] (100 flits)
Measured flits: 214917 214927 214937 215018 215038 215053 215079 215097 215105 215120 [...] (56 flits)
Class 0:
Remaining flits: 94144 94204 94239 94257 94269 94351 94357 94374 94402 94414 [...] (100 flits)
Measured flits: 214917 214927 214937 215018 215038 215053 215079 215097 215105 215120 [...] (56 flits)
Class 0:
Remaining flits: 94144 94204 94239 94257 94269 94351 94357 94374 94402 94414 [...] (100 flits)
Measured flits: 214917 214927 214937 215018 215038 215053 215079 215097 215105 215120 [...] (56 flits)
Class 0:
Remaining flits: 94144 94204 94239 94257 94269 94351 94357 94374 94402 94414 [...] (100 flits)
Measured flits: 214917 214927 214937 215018 215038 215053 215079 215097 215105 215120 [...] (56 flits)
Class 0:
Remaining flits: 94144 94204 94239 94257 94269 94351 94357 94374 94402 94414 [...] (100 flits)
Measured flits: 214917 214927 214937 215018 215038 215053 215079 215097 215105 215120 [...] (56 flits)
Class 0:
Remaining flits: 94144 94204 94239 94257 94269 94351 94357 94374 94402 94414 [...] (100 flits)
Measured flits: 214917 214927 214937 215018 215038 215053 215079 215097 215105 215120 [...] (56 flits)
Class 0:
Remaining flits: 94144 94204 94239 94257 94269 94351 94357 94374 94402 94414 [...] (100 flits)
Measured flits: 214917 214927 214937 215018 215038 215053 215079 215097 215105 215120 [...] (56 flits)
Class 0:
Remaining flits: 94144 94204 94239 94257 94269 94351 94357 94374 94402 94414 [...] (100 flits)
Measured flits: 214917 214927 214937 215018 215038 215053 215079 215097 215105 215120 [...] (56 flits)
Class 0:
Remaining flits: 94144 94204 94239 94257 94269 94351 94357 94374 94402 94414 [...] (100 flits)
Measured flits: 214917 214927 214937 215018 215038 215053 215079 215097 215105 215120 [...] (56 flits)
Class 0:
Remaining flits: 94144 94204 94239 94257 94269 94351 94357 94374 94402 94414 [...] (100 flits)
Measured flits: 214917 214927 214937 215018 215038 215053 215079 215097 215105 215120 [...] (56 flits)
Class 0:
Remaining flits: 94144 94204 94239 94257 94269 94351 94357 94374 94402 94414 [...] (100 flits)
Measured flits: 214917 214927 214937 215018 215038 215053 215079 215097 215105 215120 [...] (56 flits)
Class 0:
Remaining flits: 94144 94204 94239 94257 94269 94351 94357 94374 94402 94414 [...] (100 flits)
Measured flits: 214917 214927 214937 215018 215038 215053 215079 215097 215105 215120 [...] (56 flits)
Class 0:
Remaining flits: 94144 94204 94239 94257 94269 94351 94357 94374 94402 94414 [...] (100 flits)
Measured flits: 214917 214927 214937 215018 215038 215053 215079 215097 215105 215120 [...] (56 flits)
Class 0:
Remaining flits: 94144 94204 94239 94257 94269 94351 94357 94374 94402 94414 [...] (100 flits)
Measured flits: 214917 214927 214937 215018 215038 215053 215079 215097 215105 215120 [...] (56 flits)
Class 0:
Remaining flits: 94144 94204 94239 94257 94269 94351 94357 94374 94402 94414 [...] (100 flits)
Measured flits: 214917 214927 214937 215018 215038 215053 215079 215097 215105 215120 [...] (56 flits)
Class 0:
Remaining flits: 94144 94204 94239 94257 94269 94351 94357 94374 94402 94414 [...] (100 flits)
Measured flits: 214917 214927 214937 215018 215038 215053 215079 215097 215105 215120 [...] (56 flits)
Class 0:
Remaining flits: 94144 94204 94239 94257 94269 94351 94357 94374 94402 94414 [...] (100 flits)
Measured flits: 214917 214927 214937 215018 215038 215053 215079 215097 215105 215120 [...] (56 flits)
Class 0:
Remaining flits: 94144 94204 94239 94257 94269 94351 94357 94374 94402 94414 [...] (100 flits)
Measured flits: 214917 214927 214937 215018 215038 215053 215079 215097 215105 215120 [...] (56 flits)
Class 0:
Remaining flits: 94144 94204 94239 94257 94269 94351 94357 94374 94402 94414 [...] (100 flits)
Measured flits: 214917 214927 214937 215018 215038 215053 215079 215097 215105 215120 [...] (56 flits)
Class 0:
Remaining flits: 94144 94204 94239 94257 94269 94351 94357 94374 94402 94414 [...] (100 flits)
Measured flits: 214917 214927 214937 215018 215038 215053 215079 215097 215105 215120 [...] (56 flits)
Class 0:
Remaining flits: 94144 94204 94239 94257 94269 94351 94357 94374 94402 94414 [...] (100 flits)
Measured flits: 214917 214927 214937 215018 215038 215053 215079 215097 215105 215120 [...] (56 flits)
Class 0:
Remaining flits: 94144 94204 94239 94257 94269 94351 94357 94374 94402 94414 [...] (100 flits)
Measured flits: 214917 214927 214937 215018 215038 215053 215079 215097 215105 215120 [...] (56 flits)
Class 0:
Remaining flits: 94144 94204 94239 94257 94269 94351 94357 94374 94402 94414 [...] (100 flits)
Measured flits: 214917 214927 214937 215018 215038 215053 215079 215097 215105 215120 [...] (56 flits)
Class 0:
Remaining flits: 94144 94204 94239 94257 94269 94351 94357 94374 94402 94414 [...] (100 flits)
Measured flits: 214917 214927 214937 215018 215038 215053 215079 215097 215105 215120 [...] (56 flits)
Class 0:
Remaining flits: 94144 94204 94239 94257 94269 94351 94357 94374 94402 94414 [...] (100 flits)
Measured flits: 214917 214927 214937 215018 215038 215053 215079 215097 215105 215120 [...] (56 flits)
Class 0:
Remaining flits: 94144 94204 94239 94257 94269 94351 94357 94374 94402 94414 [...] (100 flits)
Measured flits: 214917 214927 214937 215018 215038 215053 215079 215097 215105 215120 [...] (56 flits)
Class 0:
Remaining flits: 94144 94204 94239 94257 94269 94351 94357 94374 94402 94414 [...] (100 flits)
Measured flits: 214917 214927 214937 215018 215038 215053 215079 215097 215105 215120 [...] (56 flits)
Class 0:
Remaining flits: 94144 94204 94239 94257 94269 94351 94357 94374 94402 94414 [...] (100 flits)
Measured flits: 214917 214927 214937 215018 215038 215053 215079 215097 215105 215120 [...] (56 flits)
Class 0:
Remaining flits: 94144 94204 94239 94257 94269 94351 94357 94374 94402 94414 [...] (100 flits)
Measured flits: 214917 214927 214937 215018 215038 215053 215079 215097 215105 215120 [...] (56 flits)
Class 0:
Remaining flits: 94144 94204 94239 94257 94269 94351 94357 94374 94402 94414 [...] (100 flits)
Measured flits: 214917 214927 214937 215018 215038 215053 215079 215097 215105 215120 [...] (56 flits)
Class 0:
Remaining flits: 94144 94204 94239 94257 94269 94351 94357 94374 94402 94414 [...] (100 flits)
Measured flits: 214917 214927 214937 215018 215038 215053 215079 215097 215105 215120 [...] (56 flits)
Class 0:
Remaining flits: 94144 94204 94239 94257 94269 94351 94357 94374 94402 94414 [...] (100 flits)
Measured flits: 214917 214927 214937 215018 215038 215053 215079 215097 215105 215120 [...] (56 flits)
Class 0:
Remaining flits: 94144 94204 94239 94257 94269 94351 94357 94374 94402 94414 [...] (100 flits)
Measured flits: 214917 214927 214937 215018 215038 215053 215079 215097 215105 215120 [...] (56 flits)
Class 0:
Remaining flits: 94144 94204 94239 94257 94269 94351 94357 94374 94402 94414 [...] (100 flits)
Measured flits: 214917 214927 214937 215018 215038 215053 215079 215097 215105 215120 [...] (56 flits)
Class 0:
Remaining flits: 94144 94204 94239 94257 94269 94351 94357 94374 94402 94414 [...] (100 flits)
Measured flits: 214917 214927 214937 215018 215038 215053 215079 215097 215105 215120 [...] (56 flits)
Class 0:
Remaining flits: 94144 94204 94239 94257 94269 94351 94357 94374 94402 94414 [...] (100 flits)
Measured flits: 214917 214927 214937 215018 215038 215053 215079 215097 215105 215120 [...] (56 flits)
Class 0:
Remaining flits: 94144 94204 94239 94257 94269 94351 94357 94374 94402 94414 [...] (100 flits)
Measured flits: 214917 214927 214937 215018 215038 215053 215079 215097 215105 215120 [...] (56 flits)
Class 0:
Remaining flits: 94144 94204 94239 94257 94269 94351 94357 94374 94402 94414 [...] (100 flits)
Measured flits: 214917 214927 214937 215018 215038 215053 215079 215097 215105 215120 [...] (56 flits)
Class 0:
Remaining flits: 94144 94204 94239 94257 94269 94351 94357 94374 94402 94414 [...] (100 flits)
Measured flits: 214917 214927 214937 215018 215038 215053 215079 215097 215105 215120 [...] (56 flits)
Class 0:
Remaining flits: 94144 94204 94239 94257 94269 94351 94357 94374 94402 94414 [...] (100 flits)
Measured flits: 214917 214927 214937 215018 215038 215053 215079 215097 215105 215120 [...] (56 flits)
Class 0:
Remaining flits: 94144 94204 94239 94257 94269 94351 94357 94374 94402 94414 [...] (100 flits)
Measured flits: 214917 214927 214937 215018 215038 215053 215079 215097 215105 215120 [...] (56 flits)
Class 0:
Remaining flits: 94144 94204 94239 94257 94269 94351 94357 94374 94402 94414 [...] (100 flits)
Measured flits: 214917 214927 214937 215018 215038 215053 215079 215097 215105 215120 [...] (56 flits)
Class 0:
Remaining flits: 94144 94204 94239 94257 94269 94351 94357 94374 94402 94414 [...] (100 flits)
Measured flits: 214917 214927 214937 215018 215038 215053 215079 215097 215105 215120 [...] (56 flits)
Class 0:
Remaining flits: 94144 94204 94239 94257 94269 94351 94357 94374 94402 94414 [...] (100 flits)
Measured flits: 214917 214927 214937 215018 215038 215053 215079 215097 215105 215120 [...] (56 flits)
Class 0:
Remaining flits: 94144 94204 94239 94257 94269 94351 94357 94374 94402 94414 [...] (100 flits)
Measured flits: 214917 214927 214937 215018 215038 215053 215079 215097 215105 215120 [...] (56 flits)
Class 0:
Remaining flits: 94144 94204 94239 94257 94269 94351 94357 94374 94402 94414 [...] (100 flits)
Measured flits: 214917 214927 214937 215018 215038 215053 215079 215097 215105 215120 [...] (56 flits)
Class 0:
Remaining flits: 94144 94204 94239 94257 94269 94351 94357 94374 94402 94414 [...] (100 flits)
Measured flits: 214917 214927 214937 215018 215038 215053 215079 215097 215105 215120 [...] (56 flits)
Class 0:
Remaining flits: 94144 94204 94239 94257 94269 94351 94357 94374 94402 94414 [...] (100 flits)
Measured flits: 214917 214927 214937 215018 215038 215053 215079 215097 215105 215120 [...] (56 flits)
Class 0:
Remaining flits: 94144 94204 94239 94257 94269 94351 94357 94374 94402 94414 [...] (100 flits)
Measured flits: 214917 214927 214937 215018 215038 215053 215079 215097 215105 215120 [...] (56 flits)
Class 0:
Remaining flits: 94144 94204 94239 94257 94269 94351 94357 94374 94402 94414 [...] (100 flits)
Measured flits: 214917 214927 214937 215018 215038 215053 215079 215097 215105 215120 [...] (56 flits)
Class 0:
Remaining flits: 94144 94204 94239 94257 94269 94351 94357 94374 94402 94414 [...] (100 flits)
Measured flits: 214917 214927 214937 215018 215038 215053 215079 215097 215105 215120 [...] (56 flits)
Class 0:
Remaining flits: 94144 94204 94239 94257 94269 94351 94357 94374 94402 94414 [...] (100 flits)
Measured flits: 214917 214927 214937 215018 215038 215053 215079 215097 215105 215120 [...] (56 flits)
Class 0:
Remaining flits: 94144 94204 94239 94257 94269 94351 94357 94374 94402 94414 [...] (100 flits)
Measured flits: 214917 214927 214937 215018 215038 215053 215079 215097 215105 215120 [...] (56 flits)
Class 0:
Remaining flits: 94144 94204 94239 94257 94269 94351 94357 94374 94402 94414 [...] (100 flits)
Measured flits: 214917 214927 214937 215018 215038 215053 215079 215097 215105 215120 [...] (56 flits)
Class 0:
Remaining flits: 94144 94204 94239 94257 94269 94351 94357 94374 94402 94414 [...] (100 flits)
Measured flits: 214917 214927 214937 215018 215038 215053 215079 215097 215105 215120 [...] (56 flits)
Class 0:
Remaining flits: 94144 94204 94239 94257 94269 94351 94357 94374 94402 94414 [...] (100 flits)
Measured flits: 214917 214927 214937 215018 215038 215053 215079 215097 215105 215120 [...] (56 flits)
Class 0:
Remaining flits: 94144 94204 94239 94257 94269 94351 94357 94374 94402 94414 [...] (100 flits)
Measured flits: 214917 214927 214937 215018 215038 215053 215079 215097 215105 215120 [...] (56 flits)
Class 0:
Remaining flits: 94144 94204 94239 94257 94269 94351 94357 94374 94402 94414 [...] (100 flits)
Measured flits: 214917 214927 214937 215018 215038 215053 215079 215097 215105 215120 [...] (56 flits)
Class 0:
Remaining flits: 94144 94204 94239 94257 94269 94351 94357 94374 94402 94414 [...] (100 flits)
Measured flits: 214917 214927 214937 215018 215038 215053 215079 215097 215105 215120 [...] (56 flits)
Class 0:
Remaining flits: 94144 94204 94239 94257 94269 94351 94357 94374 94402 94414 [...] (100 flits)
Measured flits: 214917 214927 214937 215018 215038 215053 215079 215097 215105 215120 [...] (56 flits)
Class 0:
Remaining flits: 94144 94204 94239 94257 94269 94351 94357 94374 94402 94414 [...] (100 flits)
Measured flits: 214917 214927 214937 215018 215038 215053 215079 215097 215105 215120 [...] (56 flits)
Class 0:
Remaining flits: 94144 94204 94239 94257 94269 94351 94357 94374 94402 94414 [...] (100 flits)
Measured flits: 214917 214927 214937 215018 215038 215053 215079 215097 215105 215120 [...] (56 flits)
Class 0:
Remaining flits: 94144 94204 94239 94257 94269 94351 94357 94374 94402 94414 [...] (100 flits)
Measured flits: 214917 214927 214937 215018 215038 215053 215079 215097 215105 215120 [...] (56 flits)
Class 0:
Remaining flits: 94144 94204 94239 94257 94269 94351 94357 94374 94402 94414 [...] (100 flits)
Measured flits: 214917 214927 214937 215018 215038 215053 215079 215097 215105 215120 [...] (56 flits)
Class 0:
Remaining flits: 94144 94204 94239 94257 94269 94351 94357 94374 94402 94414 [...] (100 flits)
Measured flits: 214917 214927 214937 215018 215038 215053 215079 215097 215105 215120 [...] (56 flits)
Class 0:
Remaining flits: 94144 94204 94239 94257 94269 94351 94357 94374 94402 94414 [...] (100 flits)
Measured flits: 214917 214927 214937 215018 215038 215053 215079 215097 215105 215120 [...] (56 flits)
Class 0:
Remaining flits: 94144 94204 94239 94257 94269 94351 94357 94374 94402 94414 [...] (100 flits)
Measured flits: 214917 214927 214937 215018 215038 215053 215079 215097 215105 215120 [...] (56 flits)
Time taken is 71000 cycles
====== Traffic class 0 ======

Total number of flits generated = 269550, changed lanes = 259866
Overall minimum packet latency = 7 (1 samples)
Overall average packet latency = 32.0094 (1 samples)
Overall maximum packet latency = 190 (1 samples)
Overall minimum network latency = 8 (1 samples)
Overall average network latency = 33.0061 (1 samples)
Overall maximum network latency = 191 (1 samples)
Overall minimum flit latency = 8 (1 samples)
Overall average flit latency = 33.0129 (1 samples)
Overall maximum flit latency = 191 (1 samples)
Overall minimum fragmentation = 0 (1 samples)
Overall average fragmentation = 0 (1 samples)
Overall maximum fragmentation = 0 (1 samples)
Overall minimum injected packet rate = 0 (1 samples)
Overall average injected packet rate = 0.223202 (1 samples)
Overall maximum injected packet rate = 0.27405 (1 samples)
Overall minimum accepted packet rate = 0.21995 (1 samples)
Overall average accepted packet rate = 0.223128 (1 samples)
Overall maximum accepted packet rate = 0.22655 (1 samples)
Overall minimum injected flit rate = 0 (1 samples)
Overall average injected flit rate = 0.223202 (1 samples)
Overall maximum injected flit rate = 0.27405 (1 samples)
Overall minimum accepted flit rate = 0.21995 (1 samples)
Overall average accepted flit rate = 0.223128 (1 samples)
Overall maximum accepted flit rate = 0.22655 (1 samples)
Overall average injected packet size = 1 (1 samples)
Overall average accepted packet size = 1 (1 samples)
Overall average hops = 3.43167 (1 samples)
Overall throughput of the network (flits/cycle) = 6.73625
Overall throughput of the network (packets/cycle) = 6.73625
Total run time 62593.4
