make: Nothing to be done for `all'.
Master: Running timer....
Master: Running SRC....
BEGIN Configuration File: ./examples/bitrev
// Topology

topology = mesh;
k = 4;
n = 2;

// Routing
routing_function = dor;

// Flow control
num_vcs     = 4;
vc_buf_size = 4;
wait_for_tail_credit = 0;

// Router architecture
vc_allocator = islip;
sw_allocator = islip;
alloc_iters  = 1;

credit_delay   = 1;
routing_delay  = 1;
vc_alloc_delay = 1;
sw_alloc_delay = 1;

input_speedup     = 1;
output_speedup    = 1;
internal_speedup  = 1.0;

vc_busy_when_full = 0;

// Traffic
traffic = uniform;
packet_size = 1;

// Simulation
sim_type = throughput;

injection_rate = 0.07;

END Configuration File: ./examples/bitrev
===== Time: 10000 =====
Class 0:
Minimum packet latency = 7
Average packet latency = 28.96
Maximum packet latency = 285
Minimum network latency = 8
Average network latency = 29.96
Maximum network latency = 286
Slowest packet = 7819
Minimum flit latency = 8
Average flit latency = 29.96
Maximum flit latency = 286
Slowest flit = 7819
Minimum fragmentation = 0
Average fragmentation = 0
Maximum fragmentation = 0
Minimum injected packet rate = 0.0662 (at node 0)
Average injected packet rate = 0.0688562
Maximum injected packet rate = 0.0725 (at node 6)
Minimum accepted packet rate = 0.0621 (at node 4)
Average accepted packet rate = 0.0686937
Maximum accepted packet rate = 0.0735 (at node 7)
Minimum injected flit rate = 0.0662 (at node 0)
Average injected flit rate = 0.0688562
Maximum injected flit rate = 0.0725 (at node 6)
Minimum accepted flit rate = 0.0621 (at node 4)
Average accepted flit rate = 0.0686937
Maximum accepted flit rate = 0.0735 (at node 7)
Total number of injected packets = 11017
Total number of injected flits = 11017
Average injected packet length = 1
Total number of accepted packets = 10991
Total number of accepted flits = 10991
Average accepted packet length = 1
Total in-flight flits = 26 (0 measured)
===== Time: 20000 =====
Class 0:
Minimum packet latency = 7
Average packet latency = 29.0322
Maximum packet latency = 285
Minimum network latency = 8
Average network latency = 30.0322
Maximum network latency = 286
Slowest packet = 7819
Minimum flit latency = 8
Average flit latency = 30.0322
Maximum flit latency = 286
Slowest flit = 7819
Minimum fragmentation = 0
Average fragmentation = 0
Maximum fragmentation = 0
Minimum injected packet rate = 0.0674 (at node 8)
Average injected packet rate = 0.0695188
Maximum injected packet rate = 0.0717 (at node 10)
Minimum accepted packet rate = 0.0642 (at node 4)
Average accepted packet rate = 0.0694125
Maximum accepted packet rate = 0.0735 (at node 8)
Minimum injected flit rate = 0.0674 (at node 8)
Average injected flit rate = 0.0695188
Maximum injected flit rate = 0.0717 (at node 10)
Minimum accepted flit rate = 0.0642 (at node 4)
Average accepted flit rate = 0.0694125
Maximum accepted flit rate = 0.0735 (at node 8)
Total number of injected packets = 22246
Total number of injected flits = 22246
Average injected packet length = 1
Total number of accepted packets = 22212
Total number of accepted flits = 22212
Average accepted packet length = 1
Total in-flight flits = 34 (0 measured)
===== Time: 30000 =====
Class 0:
Minimum packet latency = 7
Average packet latency = 28.8569
Maximum packet latency = 173
Minimum network latency = 8
Average network latency = 29.8569
Maximum network latency = 174
Slowest packet = 30891
Minimum flit latency = 8
Average flit latency = 29.8569
Maximum flit latency = 174
Slowest flit = 27318
Minimum fragmentation = 0
Average fragmentation = 0
Maximum fragmentation = 0
Minimum injected packet rate = 0.0643 (at node 2)
Average injected packet rate = 0.0689625
Maximum injected packet rate = 0.0746 (at node 13)
Minimum accepted packet rate = 0.0605 (at node 4)
Average accepted packet rate = 0.0689875
Maximum accepted packet rate = 0.0723 (at node 7)
Minimum injected flit rate = 0.0643 (at node 2)
Average injected flit rate = 0.0689625
Maximum injected flit rate = 0.0746 (at node 13)
Minimum accepted flit rate = 0.0605 (at node 4)
Average accepted flit rate = 0.0689875
Maximum accepted flit rate = 0.0723 (at node 7)
Total number of injected packets = 11034
Total number of injected flits = 11034
Average injected packet length = 1
Total number of accepted packets = 11038
Total number of accepted flits = 11038
Average accepted packet length = 1
Total in-flight flits = 30 (0 measured)
===== Time: 40000 =====
Class 0:
Minimum packet latency = 7
Average packet latency = 28.7145
Maximum packet latency = 231
Minimum network latency = 8
Average network latency = 29.7145
Maximum network latency = 232
Slowest packet = 37849
Minimum flit latency = 8
Average flit latency = 29.7353
Maximum flit latency = 232
Slowest flit = 37849
Minimum fragmentation = 0
Average fragmentation = 0
Maximum fragmentation = 0
Minimum injected packet rate = 0.0658 (at node 6)
Average injected packet rate = 0.0703687
Maximum injected packet rate = 0.075 (at node 9)
Minimum accepted packet rate = 0.0654 (at node 0)
Average accepted packet rate = 0.0703375
Maximum accepted packet rate = 0.0753 (at node 7)
Minimum injected flit rate = 0.0658 (at node 6)
Average injected flit rate = 0.0703687
Maximum injected flit rate = 0.075 (at node 9)
Minimum accepted flit rate = 0.0654 (at node 0)
Average accepted flit rate = 0.0703375
Maximum accepted flit rate = 0.0753 (at node 7)
Total number of injected packets = 11259
Total number of injected flits = 11259
Average injected packet length = 1
Total number of accepted packets = 11254
Total number of accepted flits = 11254
Average accepted packet length = 1
Total in-flight flits = 35 (35 measured)
===== Time: 50000 =====
Class 0:
Minimum packet latency = 7
Average packet latency = 28.7221
Maximum packet latency = 231
Minimum network latency = 8
Average network latency = 29.7221
Maximum network latency = 232
Slowest packet = 37849
Minimum flit latency = 8
Average flit latency = 29.7325
Maximum flit latency = 232
Slowest flit = 37849
Minimum fragmentation = 0
Average fragmentation = 0
Maximum fragmentation = 0
Minimum injected packet rate = 0.06735 (at node 2)
Average injected packet rate = 0.0704687
Maximum injected packet rate = 0.0747 (at node 14)
Minimum accepted packet rate = 0.0679 (at node 12)
Average accepted packet rate = 0.0704719
Maximum accepted packet rate = 0.07425 (at node 7)
Minimum injected flit rate = 0.06735 (at node 2)
Average injected flit rate = 0.0704687
Maximum injected flit rate = 0.0747 (at node 14)
Minimum accepted flit rate = 0.0679 (at node 12)
Average accepted flit rate = 0.0704719
Maximum accepted flit rate = 0.07425 (at node 7)
Total number of injected packets = 22550
Total number of injected flits = 22550
Average injected packet length = 1
Total number of accepted packets = 22551
Total number of accepted flits = 22551
Average accepted packet length = 1
Total in-flight flits = 29 (29 measured)
===== Time: 60000 =====
Class 0:
Minimum packet latency = 7
Average packet latency = 28.747
Maximum packet latency = 231
Minimum network latency = 8
Average network latency = 29.747
Maximum network latency = 232
Slowest packet = 37849
Minimum flit latency = 8
Average flit latency = 29.7539
Maximum flit latency = 232
Slowest flit = 37849
Minimum fragmentation = 0
Average fragmentation = 0
Maximum fragmentation = 0
Minimum injected packet rate = 0.0682333 (at node 1)
Average injected packet rate = 0.0703167
Maximum injected packet rate = 0.0740667 (at node 14)
Minimum accepted packet rate = 0.0681667 (at node 0)
Average accepted packet rate = 0.0703063
Maximum accepted packet rate = 0.0735667 (at node 7)
Minimum injected flit rate = 0.0682333 (at node 1)
Average injected flit rate = 0.0703167
Maximum injected flit rate = 0.0740667 (at node 14)
Minimum accepted flit rate = 0.0681667 (at node 0)
Average accepted flit rate = 0.0703063
Maximum accepted flit rate = 0.0735667 (at node 7)
Total number of injected packets = 33752
Total number of injected flits = 33752
Average injected packet length = 1
Total number of accepted packets = 33747
Total number of accepted flits = 33747
Average accepted packet length = 1
Total in-flight flits = 35 (35 measured)
Draining remaining packets ...
Class 0:
Remaining flits: 66996 66997 66999 67000 67004 67009 67010 67011 67012 67013 [...] (22 flits)
Measured flits: 66996 66997 66999 67000 67004 67009 67010 67011 67012 67013 [...] (22 flits)
Class 0:
Remaining flits: 66996 67009 67011 67018 67025 67026 67029 67030 67031 (9 flits)
Measured flits: 66996 67009 67011 67018 67025 67026 67029 67030 67031 (9 flits)
Class 0:
Remaining flits: 66996 67018 (2 flits)
Measured flits: 66996 67018 (2 flits)
Class 0:
Remaining flits: 66996 (1 flits)
Measured flits: 66996 (1 flits)
Class 0:
Remaining flits: 66996 (1 flits)
Measured flits: 66996 (1 flits)
Class 0:
Remaining flits: 66996 (1 flits)
Measured flits: 66996 (1 flits)
Class 0:
Remaining flits: 66996 (1 flits)
Measured flits: 66996 (1 flits)
Class 0:
Remaining flits: 66996 (1 flits)
Measured flits: 66996 (1 flits)
Class 0:
Remaining flits: 66996 (1 flits)
Measured flits: 66996 (1 flits)
Class 0:
Remaining flits: 66996 (1 flits)
Measured flits: 66996 (1 flits)
Class 0:
Remaining flits: 66996 (1 flits)
Measured flits: 66996 (1 flits)
Class 0:
Remaining flits: 66996 (1 flits)
Measured flits: 66996 (1 flits)
Class 0:
Remaining flits: 66996 (1 flits)
Measured flits: 66996 (1 flits)
Class 0:
Remaining flits: 66996 (1 flits)
Measured flits: 66996 (1 flits)
Class 0:
Remaining flits: 66996 (1 flits)
Measured flits: 66996 (1 flits)
Class 0:
Remaining flits: 66996 (1 flits)
Measured flits: 66996 (1 flits)
Class 0:
Remaining flits: 66996 (1 flits)
Measured flits: 66996 (1 flits)
Class 0:
Remaining flits: 66996 (1 flits)
Measured flits: 66996 (1 flits)
Class 0:
Remaining flits: 66996 (1 flits)
Measured flits: 66996 (1 flits)
Class 0:
Remaining flits: 66996 (1 flits)
Measured flits: 66996 (1 flits)
Class 0:
Remaining flits: 66996 (1 flits)
Measured flits: 66996 (1 flits)
Class 0:
Remaining flits: 66996 (1 flits)
Measured flits: 66996 (1 flits)
Class 0:
Remaining flits: 66996 (1 flits)
Measured flits: 66996 (1 flits)
Class 0:
Remaining flits: 66996 (1 flits)
Measured flits: 66996 (1 flits)
Class 0:
Remaining flits: 66996 (1 flits)
Measured flits: 66996 (1 flits)
Class 0:
Remaining flits: 66996 (1 flits)
Measured flits: 66996 (1 flits)
Class 0:
Remaining flits: 66996 (1 flits)
Measured flits: 66996 (1 flits)
Class 0:
Remaining flits: 66996 (1 flits)
Measured flits: 66996 (1 flits)
Class 0:
Remaining flits: 66996 (1 flits)
Measured flits: 66996 (1 flits)
Class 0:
Remaining flits: 66996 (1 flits)
Measured flits: 66996 (1 flits)
Class 0:
Remaining flits: 66996 (1 flits)
Measured flits: 66996 (1 flits)
Class 0:
Remaining flits: 66996 (1 flits)
Measured flits: 66996 (1 flits)
Class 0:
Remaining flits: 66996 (1 flits)
Measured flits: 66996 (1 flits)
Class 0:
Remaining flits: 66996 (1 flits)
Measured flits: 66996 (1 flits)
Class 0:
Remaining flits: 66996 (1 flits)
Measured flits: 66996 (1 flits)
Class 0:
Remaining flits: 66996 (1 flits)
Measured flits: 66996 (1 flits)
Class 0:
Remaining flits: 66996 (1 flits)
Measured flits: 66996 (1 flits)
Class 0:
Remaining flits: 66996 (1 flits)
Measured flits: 66996 (1 flits)
Class 0:
Remaining flits: 66996 (1 flits)
Measured flits: 66996 (1 flits)
Class 0:
Remaining flits: 66996 (1 flits)
Measured flits: 66996 (1 flits)
Class 0:
Remaining flits: 66996 (1 flits)
Measured flits: 66996 (1 flits)
Class 0:
Remaining flits: 66996 (1 flits)
Measured flits: 66996 (1 flits)
Class 0:
Remaining flits: 66996 (1 flits)
Measured flits: 66996 (1 flits)
Class 0:
Remaining flits: 66996 (1 flits)
Measured flits: 66996 (1 flits)
Class 0:
Remaining flits: 66996 (1 flits)
Measured flits: 66996 (1 flits)
Class 0:
Remaining flits: 66996 (1 flits)
Measured flits: 66996 (1 flits)
Class 0:
Remaining flits: 66996 (1 flits)
Measured flits: 66996 (1 flits)
Class 0:
Remaining flits: 66996 (1 flits)
Measured flits: 66996 (1 flits)
Class 0:
Remaining flits: 66996 (1 flits)
Measured flits: 66996 (1 flits)
Class 0:
Remaining flits: 66996 (1 flits)
Measured flits: 66996 (1 flits)
Class 0:
Remaining flits: 66996 (1 flits)
Measured flits: 66996 (1 flits)
Class 0:
Remaining flits: 66996 (1 flits)
Measured flits: 66996 (1 flits)
Class 0:
Remaining flits: 66996 (1 flits)
Measured flits: 66996 (1 flits)
Class 0:
Remaining flits: 66996 (1 flits)
Measured flits: 66996 (1 flits)
Class 0:
Remaining flits: 66996 (1 flits)
Measured flits: 66996 (1 flits)
Class 0:
Remaining flits: 66996 (1 flits)
Measured flits: 66996 (1 flits)
Class 0:
Remaining flits: 66996 (1 flits)
Measured flits: 66996 (1 flits)
Class 0:
Remaining flits: 66996 (1 flits)
Measured flits: 66996 (1 flits)
Class 0:
Remaining flits: 66996 (1 flits)
Measured flits: 66996 (1 flits)
Class 0:
Remaining flits: 66996 (1 flits)
Measured flits: 66996 (1 flits)
Class 0:
Remaining flits: 66996 (1 flits)
Measured flits: 66996 (1 flits)
Class 0:
Remaining flits: 66996 (1 flits)
Measured flits: 66996 (1 flits)
Class 0:
Remaining flits: 66996 (1 flits)
Measured flits: 66996 (1 flits)
Class 0:
Remaining flits: 66996 (1 flits)
Measured flits: 66996 (1 flits)
Class 0:
Remaining flits: 66996 (1 flits)
Measured flits: 66996 (1 flits)
Class 0:
Remaining flits: 66996 (1 flits)
Measured flits: 66996 (1 flits)
Class 0:
Remaining flits: 66996 (1 flits)
Measured flits: 66996 (1 flits)
Class 0:
Remaining flits: 66996 (1 flits)
Measured flits: 66996 (1 flits)
Class 0:
Remaining flits: 66996 (1 flits)
Measured flits: 66996 (1 flits)
Class 0:
Remaining flits: 66996 (1 flits)
Measured flits: 66996 (1 flits)
Class 0:
Remaining flits: 66996 (1 flits)
Measured flits: 66996 (1 flits)
Class 0:
Remaining flits: 66996 (1 flits)
Measured flits: 66996 (1 flits)
Class 0:
Remaining flits: 66996 (1 flits)
Measured flits: 66996 (1 flits)
Class 0:
Remaining flits: 66996 (1 flits)
Measured flits: 66996 (1 flits)
Class 0:
Remaining flits: 66996 (1 flits)
Measured flits: 66996 (1 flits)
Class 0:
Remaining flits: 66996 (1 flits)
Measured flits: 66996 (1 flits)
Class 0:
Remaining flits: 66996 (1 flits)
Measured flits: 66996 (1 flits)
Class 0:
Remaining flits: 66996 (1 flits)
Measured flits: 66996 (1 flits)
Class 0:
Remaining flits: 66996 (1 flits)
Measured flits: 66996 (1 flits)
Class 0:
Remaining flits: 66996 (1 flits)
Measured flits: 66996 (1 flits)
Class 0:
Remaining flits: 66996 (1 flits)
Measured flits: 66996 (1 flits)
Class 0:
Remaining flits: 66996 (1 flits)
Measured flits: 66996 (1 flits)
Class 0:
Remaining flits: 66996 (1 flits)
Measured flits: 66996 (1 flits)
Class 0:
Remaining flits: 66996 (1 flits)
Measured flits: 66996 (1 flits)
Class 0:
Remaining flits: 66996 (1 flits)
Measured flits: 66996 (1 flits)
Class 0:
Remaining flits: 66996 (1 flits)
Measured flits: 66996 (1 flits)
Class 0:
Remaining flits: 66996 (1 flits)
Measured flits: 66996 (1 flits)
Class 0:
Remaining flits: 66996 (1 flits)
Measured flits: 66996 (1 flits)
Class 0:
Remaining flits: 66996 (1 flits)
Measured flits: 66996 (1 flits)
Class 0:
Remaining flits: 66996 (1 flits)
Measured flits: 66996 (1 flits)
Class 0:
Remaining flits: 66996 (1 flits)
Measured flits: 66996 (1 flits)
Class 0:
Remaining flits: 66996 (1 flits)
Measured flits: 66996 (1 flits)
Class 0:
Remaining flits: 66996 (1 flits)
Measured flits: 66996 (1 flits)
Class 0:
Remaining flits: 66996 (1 flits)
Measured flits: 66996 (1 flits)
Class 0:
Remaining flits: 66996 (1 flits)
Measured flits: 66996 (1 flits)
Class 0:
Remaining flits: 66996 (1 flits)
Measured flits: 66996 (1 flits)
Class 0:
Remaining flits: 66996 (1 flits)
Measured flits: 66996 (1 flits)
Class 0:
Remaining flits: 66996 (1 flits)
Measured flits: 66996 (1 flits)
Class 0:
Remaining flits: 66996 (1 flits)
Measured flits: 66996 (1 flits)
Class 0:
Remaining flits: 66996 (1 flits)
Measured flits: 66996 (1 flits)
Class 0:
Remaining flits: 66996 (1 flits)
Measured flits: 66996 (1 flits)
Time taken is 61000 cycles
====== Traffic class 0 ======

Total number of flits generated = 67032, changed lanes = 63740
Overall minimum packet latency = 7 (1 samples)
Overall average packet latency = 28.7483 (1 samples)
Overall maximum packet latency = 231 (1 samples)
Overall minimum network latency = 8 (1 samples)
Overall average network latency = 29.7483 (1 samples)
Overall maximum network latency = 232 (1 samples)
Overall minimum flit latency = 8 (1 samples)
Overall average flit latency = 29.7552 (1 samples)
Overall maximum flit latency = 232 (1 samples)
Overall minimum fragmentation = 0 (1 samples)
Overall average fragmentation = 0 (1 samples)
Overall maximum fragmentation = 0 (1 samples)
Overall minimum injected packet rate = 0.0682333 (1 samples)
Overall average injected packet rate = 0.0703167 (1 samples)
Overall maximum injected packet rate = 0.0740667 (1 samples)
Overall minimum accepted packet rate = 0.0681667 (1 samples)
Overall average accepted packet rate = 0.0703063 (1 samples)
Overall maximum accepted packet rate = 0.0735667 (1 samples)
Overall minimum injected flit rate = 0.0682333 (1 samples)
Overall average injected flit rate = 0.0703167 (1 samples)
Overall maximum injected flit rate = 0.0740667 (1 samples)
Overall minimum accepted flit rate = 0.0681667 (1 samples)
Overall average accepted flit rate = 0.0703063 (1 samples)
Overall maximum accepted flit rate = 0.0735667 (1 samples)
Overall average injected packet size = 1 (1 samples)
Overall average accepted packet size = 1 (1 samples)
Overall average hops = 3.49824 (1 samples)
Overall throughput of the network (flits/cycle) = 2.23437
Overall throughput of the network (packets/cycle) = 2.23437
Total run time 102.893
