make: Nothing to be done for `all'.
Master: Running timer....
Master: Running SRC....
BEGIN Configuration File: ./examples/bitrev
// Topology

topology = mesh;
k = 4;
n = 2;

// Routing
routing_function = dor;

// Flow control
num_vcs     = 4;
vc_buf_size = 4;
wait_for_tail_credit = 0;

// Router architecture
vc_allocator = islip;
sw_allocator = islip;
alloc_iters  = 1;

credit_delay   = 1;
routing_delay  = 1;
vc_alloc_delay = 1;
sw_alloc_delay = 1;

input_speedup     = 1;
output_speedup    = 1;
internal_speedup  = 1.0;

vc_busy_when_full = 0;

// Traffic
traffic = uniform;
packet_size = 1;

// Simulation
sim_type = throughput;

injection_rate = 0.41;

END Configuration File: ./examples/bitrev
===== Time: 1000 =====
Class 0:
Minimum packet latency = 7
Average packet latency = 101.849
Maximum packet latency = 319
Minimum network latency = 8
Average network latency = 76.6629
Maximum network latency = 208
Slowest packet = 1220
Minimum flit latency = 8
Average flit latency = 76.6629
Maximum flit latency = 208
Slowest flit = 4637
Minimum fragmentation = 0
Average fragmentation = 0
Maximum fragmentation = 0
Minimum injected packet rate = 0.327 (at node 2)
Average injected packet rate = 0.364125
Maximum injected packet rate = 0.402 (at node 15)
Minimum accepted packet rate = 0.303 (at node 14)
Average accepted packet rate = 0.332062
Maximum accepted packet rate = 0.352 (at node 15)
Minimum injected flit rate = 0.327 (at node 2)
Average injected flit rate = 0.364125
Maximum injected flit rate = 0.402 (at node 15)
Minimum accepted flit rate = 0.303 (at node 14)
Average accepted flit rate = 0.332062
Maximum accepted flit rate = 0.352 (at node 15)
Total number of injected packets = 5826
Total number of injected flits = 5826
Average injected packet length = 1
Total number of accepted packets = 5313
Total number of accepted flits = 5313
Average accepted packet length = 1
Total in-flight flits = 523 (0 measured)
===== Time: 2000 =====
Class 0:
Minimum packet latency = 7
Average packet latency = 181.332
Maximum packet latency = 652
Minimum network latency = 8
Average network latency = 84.0585
Maximum network latency = 256
Slowest packet = 1220
Minimum flit latency = 8
Average flit latency = 84.0585
Maximum flit latency = 256
Slowest flit = 7679
Minimum fragmentation = 0
Average fragmentation = 0
Maximum fragmentation = 0
Minimum injected packet rate = 0.306 (at node 1)
Average injected packet rate = 0.353438
Maximum injected packet rate = 0.385 (at node 15)
Minimum accepted packet rate = 0.3035 (at node 4)
Average accepted packet rate = 0.338344
Maximum accepted packet rate = 0.3605 (at node 7)
Minimum injected flit rate = 0.306 (at node 1)
Average injected flit rate = 0.353438
Maximum injected flit rate = 0.385 (at node 15)
Minimum accepted flit rate = 0.3035 (at node 4)
Average accepted flit rate = 0.338344
Maximum accepted flit rate = 0.3605 (at node 7)
Total number of injected packets = 11310
Total number of injected flits = 11310
Average injected packet length = 1
Total number of accepted packets = 10827
Total number of accepted flits = 10827
Average accepted packet length = 1
Total in-flight flits = 498 (0 measured)
===== Time: 3000 =====
Class 0:
Minimum packet latency = 52
Average packet latency = 400.426
Maximum packet latency = 838
Minimum network latency = 37
Average network latency = 86.6124
Maximum network latency = 252
Slowest packet = 10339
Minimum flit latency = 37
Average flit latency = 86.6124
Maximum flit latency = 252
Slowest flit = 13592
Minimum fragmentation = 0
Average fragmentation = 0
Maximum fragmentation = 0
Minimum injected packet rate = 0.314 (at node 1)
Average injected packet rate = 0.350687
Maximum injected packet rate = 0.387 (at node 11)
Minimum accepted packet rate = 0.312 (at node 13)
Average accepted packet rate = 0.347938
Maximum accepted packet rate = 0.386 (at node 9)
Minimum injected flit rate = 0.314 (at node 1)
Average injected flit rate = 0.350687
Maximum injected flit rate = 0.387 (at node 11)
Minimum accepted flit rate = 0.312 (at node 13)
Average accepted flit rate = 0.347938
Maximum accepted flit rate = 0.386 (at node 9)
Total number of injected packets = 5611
Total number of injected flits = 5611
Average injected packet length = 1
Total number of accepted packets = 5567
Total number of accepted flits = 5567
Average accepted packet length = 1
Total in-flight flits = 538 (0 measured)
===== Time: 4000 =====
Class 0:
Minimum packet latency = 163
Average packet latency = 561.934
Maximum packet latency = 1090
Minimum network latency = 36
Average network latency = 90.8567
Maximum network latency = 220
Slowest packet = 16981
Minimum flit latency = 36
Average flit latency = 92.0297
Maximum flit latency = 220
Slowest flit = 18360
Minimum fragmentation = 0
Average fragmentation = 0
Maximum fragmentation = 0
Minimum injected packet rate = 0.295 (at node 9)
Average injected packet rate = 0.341187
Maximum injected packet rate = 0.379 (at node 7)
Minimum accepted packet rate = 0.317 (at node 13)
Average accepted packet rate = 0.342938
Maximum accepted packet rate = 0.366 (at node 5)
Minimum injected flit rate = 0.295 (at node 9)
Average injected flit rate = 0.341187
Maximum injected flit rate = 0.379 (at node 7)
Minimum accepted flit rate = 0.317 (at node 13)
Average accepted flit rate = 0.342938
Maximum accepted flit rate = 0.366 (at node 5)
Total number of injected packets = 5459
Total number of injected flits = 5459
Average injected packet length = 1
Total number of accepted packets = 5487
Total number of accepted flits = 5487
Average accepted packet length = 1
Total in-flight flits = 507 (507 measured)
===== Time: 5000 =====
Class 0:
Minimum packet latency = 163
Average packet latency = 638.478
Maximum packet latency = 1283
Minimum network latency = 36
Average network latency = 89.346
Maximum network latency = 285
Slowest packet = 16981
Minimum flit latency = 36
Average flit latency = 89.9984
Maximum flit latency = 285
Slowest flit = 21651
Minimum fragmentation = 0
Average fragmentation = 0
Maximum fragmentation = 0
Minimum injected packet rate = 0.3135 (at node 1)
Average injected packet rate = 0.346219
Maximum injected packet rate = 0.38 (at node 7)
Minimum accepted packet rate = 0.3125 (at node 4)
Average accepted packet rate = 0.34725
Maximum accepted packet rate = 0.361 (at node 3)
Minimum injected flit rate = 0.3135 (at node 1)
Average injected flit rate = 0.346219
Maximum injected flit rate = 0.38 (at node 7)
Minimum accepted flit rate = 0.3125 (at node 4)
Average accepted flit rate = 0.34725
Maximum accepted flit rate = 0.361 (at node 3)
Total number of injected packets = 11079
Total number of injected flits = 11079
Average injected packet length = 1
Total number of accepted packets = 11112
Total number of accepted flits = 11112
Average accepted packet length = 1
Total in-flight flits = 502 (502 measured)
===== Time: 6000 =====
Class 0:
Minimum packet latency = 163
Average packet latency = 705.821
Maximum packet latency = 1497
Minimum network latency = 36
Average network latency = 89.0179
Maximum network latency = 285
Slowest packet = 16981
Minimum flit latency = 36
Average flit latency = 89.4626
Maximum flit latency = 285
Slowest flit = 21651
Minimum fragmentation = 0
Average fragmentation = 0
Maximum fragmentation = 0
Minimum injected packet rate = 0.309333 (at node 2)
Average injected packet rate = 0.347271
Maximum injected packet rate = 0.380333 (at node 7)
Minimum accepted packet rate = 0.319333 (at node 4)
Average accepted packet rate = 0.347833
Maximum accepted packet rate = 0.358333 (at node 3)
Minimum injected flit rate = 0.309333 (at node 2)
Average injected flit rate = 0.347271
Maximum injected flit rate = 0.380333 (at node 7)
Minimum accepted flit rate = 0.319333 (at node 4)
Average accepted flit rate = 0.347833
Maximum accepted flit rate = 0.358333 (at node 3)
Total number of injected packets = 16669
Total number of injected flits = 16669
Average injected packet length = 1
Total number of accepted packets = 16696
Total number of accepted flits = 16696
Average accepted packet length = 1
Total in-flight flits = 509 (509 measured)
Draining remaining packets ...
Class 0:
Remaining flits: 32385 32698 32756 32817 32823 32850 32880 32904 32912 32937 [...] (452 flits)
Measured flits: 32385 32698 32756 32817 32823 32850 32880 32904 32912 32937 [...] (452 flits)
Class 0:
Remaining flits: 32698 32756 32817 32823 32880 32904 32912 32954 32986 32994 [...] (394 flits)
Measured flits: 32698 32756 32817 32823 32880 32904 32912 32954 32986 32994 [...] (394 flits)
Class 0:
Remaining flits: 32756 32823 32904 32986 33009 33025 33040 33055 33061 33062 [...] (327 flits)
Measured flits: 32756 32823 32904 32986 33009 33025 33040 33055 33061 33062 [...] (327 flits)
Class 0:
Remaining flits: 32823 32904 32986 33009 33025 33040 33061 33062 33076 33085 [...] (269 flits)
Measured flits: 32823 32904 32986 33009 33025 33040 33061 33062 33076 33085 [...] (269 flits)
Class 0:
Remaining flits: 33025 33076 33101 33123 33134 33151 33161 33162 33181 33186 [...] (218 flits)
Measured flits: 33025 33076 33101 33123 33134 33151 33161 33162 33181 33186 [...] (218 flits)
Class 0:
Remaining flits: 33025 33076 33123 33134 33161 33186 33200 33207 33217 33220 [...] (172 flits)
Measured flits: 33025 33076 33123 33134 33161 33186 33200 33207 33217 33220 [...] (172 flits)
Class 0:
Remaining flits: 33123 33161 33186 33217 33220 33230 33242 33275 33277 33294 [...] (128 flits)
Measured flits: 33123 33161 33186 33217 33220 33230 33242 33275 33277 33294 [...] (128 flits)
Class 0:
Remaining flits: 33186 33217 33277 33294 33303 33308 33331 33353 33357 33362 [...] (85 flits)
Measured flits: 33186 33217 33277 33294 33303 33308 33331 33353 33357 33362 [...] (85 flits)
Class 0:
Remaining flits: 33186 33217 33277 33303 33308 33357 33362 33372 33374 33400 [...] (58 flits)
Measured flits: 33186 33217 33277 33303 33308 33357 33362 33372 33374 33400 [...] (58 flits)
Class 0:
Remaining flits: 33277 33303 33308 33374 33424 33441 33442 33448 33457 33461 [...] (35 flits)
Measured flits: 33277 33303 33308 33374 33424 33441 33442 33448 33457 33461 [...] (35 flits)
Class 0:
Remaining flits: 33277 33374 33448 33461 33475 33489 33496 33498 33520 33524 [...] (22 flits)
Measured flits: 33277 33374 33448 33461 33475 33489 33496 33498 33520 33524 [...] (22 flits)
Class 0:
Remaining flits: 33374 33448 33489 33496 33520 33524 33525 33535 33547 33557 [...] (15 flits)
Measured flits: 33374 33448 33489 33496 33520 33524 33525 33535 33547 33557 [...] (15 flits)
Class 0:
Remaining flits: 33489 33496 33520 33525 33547 33557 33571 33586 33593 33595 [...] (11 flits)
Measured flits: 33489 33496 33520 33525 33547 33557 33571 33586 33593 33595 [...] (11 flits)
Class 0:
Remaining flits: 33496 33520 33525 33547 33557 33571 33586 33593 33595 33598 (10 flits)
Measured flits: 33496 33520 33525 33547 33557 33571 33586 33593 33595 33598 (10 flits)
Class 0:
Remaining flits: 33496 33520 33525 33547 33557 33571 33586 33593 33595 33598 (10 flits)
Measured flits: 33496 33520 33525 33547 33557 33571 33586 33593 33595 33598 (10 flits)
Class 0:
Remaining flits: 33496 33520 33525 33547 33557 33571 33586 33593 33595 33598 (10 flits)
Measured flits: 33496 33520 33525 33547 33557 33571 33586 33593 33595 33598 (10 flits)
Class 0:
Remaining flits: 33496 33520 33525 33547 33557 33571 33586 33593 33595 33598 (10 flits)
Measured flits: 33496 33520 33525 33547 33557 33571 33586 33593 33595 33598 (10 flits)
Class 0:
Remaining flits: 33496 33520 33525 33547 33557 33571 33586 33593 33595 33598 (10 flits)
Measured flits: 33496 33520 33525 33547 33557 33571 33586 33593 33595 33598 (10 flits)
Class 0:
Remaining flits: 33496 33520 33525 33547 33557 33571 33586 33593 33595 33598 (10 flits)
Measured flits: 33496 33520 33525 33547 33557 33571 33586 33593 33595 33598 (10 flits)
Class 0:
Remaining flits: 33496 33520 33525 33547 33557 33571 33586 33593 33595 33598 (10 flits)
Measured flits: 33496 33520 33525 33547 33557 33571 33586 33593 33595 33598 (10 flits)
Class 0:
Remaining flits: 33496 33520 33525 33547 33557 33571 33586 33593 33595 33598 (10 flits)
Measured flits: 33496 33520 33525 33547 33557 33571 33586 33593 33595 33598 (10 flits)
Class 0:
Remaining flits: 33496 33520 33525 33547 33557 33571 33586 33593 33595 33598 (10 flits)
Measured flits: 33496 33520 33525 33547 33557 33571 33586 33593 33595 33598 (10 flits)
Class 0:
Remaining flits: 33496 33520 33525 33547 33557 33571 33586 33593 33595 33598 (10 flits)
Measured flits: 33496 33520 33525 33547 33557 33571 33586 33593 33595 33598 (10 flits)
Class 0:
Remaining flits: 33496 33520 33525 33547 33557 33571 33586 33593 33595 33598 (10 flits)
Measured flits: 33496 33520 33525 33547 33557 33571 33586 33593 33595 33598 (10 flits)
Class 0:
Remaining flits: 33496 33520 33525 33547 33557 33571 33586 33593 33595 33598 (10 flits)
Measured flits: 33496 33520 33525 33547 33557 33571 33586 33593 33595 33598 (10 flits)
Class 0:
Remaining flits: 33496 33520 33525 33547 33557 33571 33586 33593 33595 33598 (10 flits)
Measured flits: 33496 33520 33525 33547 33557 33571 33586 33593 33595 33598 (10 flits)
Class 0:
Remaining flits: 33496 33520 33525 33547 33557 33571 33586 33593 33595 33598 (10 flits)
Measured flits: 33496 33520 33525 33547 33557 33571 33586 33593 33595 33598 (10 flits)
Class 0:
Remaining flits: 33496 33520 33525 33547 33557 33571 33586 33593 33595 33598 (10 flits)
Measured flits: 33496 33520 33525 33547 33557 33571 33586 33593 33595 33598 (10 flits)
Class 0:
Remaining flits: 33496 33520 33525 33547 33557 33571 33586 33593 33595 33598 (10 flits)
Measured flits: 33496 33520 33525 33547 33557 33571 33586 33593 33595 33598 (10 flits)
Class 0:
Remaining flits: 33496 33520 33525 33547 33557 33571 33586 33593 33595 33598 (10 flits)
Measured flits: 33496 33520 33525 33547 33557 33571 33586 33593 33595 33598 (10 flits)
Class 0:
Remaining flits: 33496 33520 33525 33547 33557 33571 33586 33593 33595 33598 (10 flits)
Measured flits: 33496 33520 33525 33547 33557 33571 33586 33593 33595 33598 (10 flits)
Class 0:
Remaining flits: 33496 33520 33525 33547 33557 33571 33586 33593 33595 33598 (10 flits)
Measured flits: 33496 33520 33525 33547 33557 33571 33586 33593 33595 33598 (10 flits)
Class 0:
Remaining flits: 33496 33520 33525 33547 33557 33571 33586 33593 33595 33598 (10 flits)
Measured flits: 33496 33520 33525 33547 33557 33571 33586 33593 33595 33598 (10 flits)
Class 0:
Remaining flits: 33496 33520 33525 33547 33557 33571 33586 33593 33595 33598 (10 flits)
Measured flits: 33496 33520 33525 33547 33557 33571 33586 33593 33595 33598 (10 flits)
Class 0:
Remaining flits: 33496 33520 33525 33547 33557 33571 33586 33593 33595 33598 (10 flits)
Measured flits: 33496 33520 33525 33547 33557 33571 33586 33593 33595 33598 (10 flits)
Class 0:
Remaining flits: 33496 33520 33525 33547 33557 33571 33586 33593 33595 33598 (10 flits)
Measured flits: 33496 33520 33525 33547 33557 33571 33586 33593 33595 33598 (10 flits)
Class 0:
Remaining flits: 33496 33520 33525 33547 33557 33571 33586 33593 33595 33598 (10 flits)
Measured flits: 33496 33520 33525 33547 33557 33571 33586 33593 33595 33598 (10 flits)
Class 0:
Remaining flits: 33496 33520 33525 33547 33557 33571 33586 33593 33595 33598 (10 flits)
Measured flits: 33496 33520 33525 33547 33557 33571 33586 33593 33595 33598 (10 flits)
Class 0:
Remaining flits: 33496 33520 33525 33547 33557 33571 33586 33593 33595 33598 (10 flits)
Measured flits: 33496 33520 33525 33547 33557 33571 33586 33593 33595 33598 (10 flits)
Class 0:
Remaining flits: 33496 33520 33525 33547 33557 33571 33586 33593 33595 33598 (10 flits)
Measured flits: 33496 33520 33525 33547 33557 33571 33586 33593 33595 33598 (10 flits)
Class 0:
Remaining flits: 33496 33520 33525 33547 33557 33571 33586 33593 33595 33598 (10 flits)
Measured flits: 33496 33520 33525 33547 33557 33571 33586 33593 33595 33598 (10 flits)
Class 0:
Remaining flits: 33496 33520 33525 33547 33557 33571 33586 33593 33595 33598 (10 flits)
Measured flits: 33496 33520 33525 33547 33557 33571 33586 33593 33595 33598 (10 flits)
Class 0:
Remaining flits: 33496 33520 33525 33547 33557 33571 33586 33593 33595 33598 (10 flits)
Measured flits: 33496 33520 33525 33547 33557 33571 33586 33593 33595 33598 (10 flits)
Class 0:
Remaining flits: 33496 33520 33525 33547 33557 33571 33586 33593 33595 33598 (10 flits)
Measured flits: 33496 33520 33525 33547 33557 33571 33586 33593 33595 33598 (10 flits)
Class 0:
Remaining flits: 33496 33520 33525 33547 33557 33571 33586 33593 33595 33598 (10 flits)
Measured flits: 33496 33520 33525 33547 33557 33571 33586 33593 33595 33598 (10 flits)
Class 0:
Remaining flits: 33496 33520 33525 33547 33557 33571 33586 33593 33595 33598 (10 flits)
Measured flits: 33496 33520 33525 33547 33557 33571 33586 33593 33595 33598 (10 flits)
Class 0:
Remaining flits: 33496 33520 33525 33547 33557 33571 33586 33593 33595 33598 (10 flits)
Measured flits: 33496 33520 33525 33547 33557 33571 33586 33593 33595 33598 (10 flits)
Class 0:
Remaining flits: 33496 33520 33525 33547 33557 33571 33586 33593 33595 33598 (10 flits)
Measured flits: 33496 33520 33525 33547 33557 33571 33586 33593 33595 33598 (10 flits)
Class 0:
Remaining flits: 33496 33520 33525 33547 33557 33571 33586 33593 33595 33598 (10 flits)
Measured flits: 33496 33520 33525 33547 33557 33571 33586 33593 33595 33598 (10 flits)
Class 0:
Remaining flits: 33496 33520 33525 33547 33557 33571 33586 33593 33595 33598 (10 flits)
Measured flits: 33496 33520 33525 33547 33557 33571 33586 33593 33595 33598 (10 flits)
Class 0:
Remaining flits: 33496 33520 33525 33547 33557 33571 33586 33593 33595 33598 (10 flits)
Measured flits: 33496 33520 33525 33547 33557 33571 33586 33593 33595 33598 (10 flits)
Class 0:
Remaining flits: 33496 33520 33525 33547 33557 33571 33586 33593 33595 33598 (10 flits)
Measured flits: 33496 33520 33525 33547 33557 33571 33586 33593 33595 33598 (10 flits)
Class 0:
Remaining flits: 33496 33520 33525 33547 33557 33571 33586 33593 33595 33598 (10 flits)
Measured flits: 33496 33520 33525 33547 33557 33571 33586 33593 33595 33598 (10 flits)
Class 0:
Remaining flits: 33496 33520 33525 33547 33557 33571 33586 33593 33595 33598 (10 flits)
Measured flits: 33496 33520 33525 33547 33557 33571 33586 33593 33595 33598 (10 flits)
Class 0:
Remaining flits: 33496 33520 33525 33547 33557 33571 33586 33593 33595 33598 (10 flits)
Measured flits: 33496 33520 33525 33547 33557 33571 33586 33593 33595 33598 (10 flits)
Class 0:
Remaining flits: 33496 33520 33525 33547 33557 33571 33586 33593 33595 33598 (10 flits)
Measured flits: 33496 33520 33525 33547 33557 33571 33586 33593 33595 33598 (10 flits)
Class 0:
Remaining flits: 33496 33520 33525 33547 33557 33571 33586 33593 33595 33598 (10 flits)
Measured flits: 33496 33520 33525 33547 33557 33571 33586 33593 33595 33598 (10 flits)
Class 0:
Remaining flits: 33496 33520 33525 33547 33557 33571 33586 33593 33595 33598 (10 flits)
Measured flits: 33496 33520 33525 33547 33557 33571 33586 33593 33595 33598 (10 flits)
Class 0:
Remaining flits: 33496 33520 33525 33547 33557 33571 33586 33593 33595 33598 (10 flits)
Measured flits: 33496 33520 33525 33547 33557 33571 33586 33593 33595 33598 (10 flits)
Class 0:
Remaining flits: 33496 33520 33525 33547 33557 33571 33586 33593 33595 33598 (10 flits)
Measured flits: 33496 33520 33525 33547 33557 33571 33586 33593 33595 33598 (10 flits)
Class 0:
Remaining flits: 33496 33520 33525 33547 33557 33571 33586 33593 33595 33598 (10 flits)
Measured flits: 33496 33520 33525 33547 33557 33571 33586 33593 33595 33598 (10 flits)
Class 0:
Remaining flits: 33496 33520 33525 33547 33557 33571 33586 33593 33595 33598 (10 flits)
Measured flits: 33496 33520 33525 33547 33557 33571 33586 33593 33595 33598 (10 flits)
Class 0:
Remaining flits: 33496 33520 33525 33547 33557 33571 33586 33593 33595 33598 (10 flits)
Measured flits: 33496 33520 33525 33547 33557 33571 33586 33593 33595 33598 (10 flits)
Class 0:
Remaining flits: 33496 33520 33525 33547 33557 33571 33586 33593 33595 33598 (10 flits)
Measured flits: 33496 33520 33525 33547 33557 33571 33586 33593 33595 33598 (10 flits)
Class 0:
Remaining flits: 33496 33520 33525 33547 33557 33571 33586 33593 33595 33598 (10 flits)
Measured flits: 33496 33520 33525 33547 33557 33571 33586 33593 33595 33598 (10 flits)
Class 0:
Remaining flits: 33496 33520 33525 33547 33557 33571 33586 33593 33595 33598 (10 flits)
Measured flits: 33496 33520 33525 33547 33557 33571 33586 33593 33595 33598 (10 flits)
Class 0:
Remaining flits: 33496 33520 33525 33547 33557 33571 33586 33593 33595 33598 (10 flits)
Measured flits: 33496 33520 33525 33547 33557 33571 33586 33593 33595 33598 (10 flits)
Class 0:
Remaining flits: 33496 33520 33525 33547 33557 33571 33586 33593 33595 33598 (10 flits)
Measured flits: 33496 33520 33525 33547 33557 33571 33586 33593 33595 33598 (10 flits)
Class 0:
Remaining flits: 33496 33520 33525 33547 33557 33571 33586 33593 33595 33598 (10 flits)
Measured flits: 33496 33520 33525 33547 33557 33571 33586 33593 33595 33598 (10 flits)
Class 0:
Remaining flits: 33496 33520 33525 33547 33557 33571 33586 33593 33595 33598 (10 flits)
Measured flits: 33496 33520 33525 33547 33557 33571 33586 33593 33595 33598 (10 flits)
Class 0:
Remaining flits: 33496 33520 33525 33547 33557 33571 33586 33593 33595 33598 (10 flits)
Measured flits: 33496 33520 33525 33547 33557 33571 33586 33593 33595 33598 (10 flits)
Class 0:
Remaining flits: 33496 33520 33525 33547 33557 33571 33586 33593 33595 33598 (10 flits)
Measured flits: 33496 33520 33525 33547 33557 33571 33586 33593 33595 33598 (10 flits)
Class 0:
Remaining flits: 33496 33520 33525 33547 33557 33571 33586 33593 33595 33598 (10 flits)
Measured flits: 33496 33520 33525 33547 33557 33571 33586 33593 33595 33598 (10 flits)
Class 0:
Remaining flits: 33496 33520 33525 33547 33557 33571 33586 33593 33595 33598 (10 flits)
Measured flits: 33496 33520 33525 33547 33557 33571 33586 33593 33595 33598 (10 flits)
Class 0:
Remaining flits: 33496 33520 33525 33547 33557 33571 33586 33593 33595 33598 (10 flits)
Measured flits: 33496 33520 33525 33547 33557 33571 33586 33593 33595 33598 (10 flits)
Class 0:
Remaining flits: 33496 33520 33525 33547 33557 33571 33586 33593 33595 33598 (10 flits)
Measured flits: 33496 33520 33525 33547 33557 33571 33586 33593 33595 33598 (10 flits)
Class 0:
Remaining flits: 33496 33520 33525 33547 33557 33571 33586 33593 33595 33598 (10 flits)
Measured flits: 33496 33520 33525 33547 33557 33571 33586 33593 33595 33598 (10 flits)
Class 0:
Remaining flits: 33496 33520 33525 33547 33557 33571 33586 33593 33595 33598 (10 flits)
Measured flits: 33496 33520 33525 33547 33557 33571 33586 33593 33595 33598 (10 flits)
Class 0:
Remaining flits: 33496 33520 33525 33547 33557 33571 33586 33593 33595 33598 (10 flits)
Measured flits: 33496 33520 33525 33547 33557 33571 33586 33593 33595 33598 (10 flits)
Class 0:
Remaining flits: 33496 33520 33525 33547 33557 33571 33586 33593 33595 33598 (10 flits)
Measured flits: 33496 33520 33525 33547 33557 33571 33586 33593 33595 33598 (10 flits)
Class 0:
Remaining flits: 33496 33520 33525 33547 33557 33571 33586 33593 33595 33598 (10 flits)
Measured flits: 33496 33520 33525 33547 33557 33571 33586 33593 33595 33598 (10 flits)
Class 0:
Remaining flits: 33496 33520 33525 33547 33557 33571 33586 33593 33595 33598 (10 flits)
Measured flits: 33496 33520 33525 33547 33557 33571 33586 33593 33595 33598 (10 flits)
Class 0:
Remaining flits: 33496 33520 33525 33547 33557 33571 33586 33593 33595 33598 (10 flits)
Measured flits: 33496 33520 33525 33547 33557 33571 33586 33593 33595 33598 (10 flits)
Class 0:
Remaining flits: 33496 33520 33525 33547 33557 33571 33586 33593 33595 33598 (10 flits)
Measured flits: 33496 33520 33525 33547 33557 33571 33586 33593 33595 33598 (10 flits)
Class 0:
Remaining flits: 33496 33520 33525 33547 33557 33571 33586 33593 33595 33598 (10 flits)
Measured flits: 33496 33520 33525 33547 33557 33571 33586 33593 33595 33598 (10 flits)
Class 0:
Remaining flits: 33496 33520 33525 33547 33557 33571 33586 33593 33595 33598 (10 flits)
Measured flits: 33496 33520 33525 33547 33557 33571 33586 33593 33595 33598 (10 flits)
Class 0:
Remaining flits: 33496 33520 33525 33547 33557 33571 33586 33593 33595 33598 (10 flits)
Measured flits: 33496 33520 33525 33547 33557 33571 33586 33593 33595 33598 (10 flits)
Class 0:
Remaining flits: 33496 33520 33525 33547 33557 33571 33586 33593 33595 33598 (10 flits)
Measured flits: 33496 33520 33525 33547 33557 33571 33586 33593 33595 33598 (10 flits)
Class 0:
Remaining flits: 33496 33520 33525 33547 33557 33571 33586 33593 33595 33598 (10 flits)
Measured flits: 33496 33520 33525 33547 33557 33571 33586 33593 33595 33598 (10 flits)
Class 0:
Remaining flits: 33496 33520 33525 33547 33557 33571 33586 33593 33595 33598 (10 flits)
Measured flits: 33496 33520 33525 33547 33557 33571 33586 33593 33595 33598 (10 flits)
Class 0:
Remaining flits: 33496 33520 33525 33547 33557 33571 33586 33593 33595 33598 (10 flits)
Measured flits: 33496 33520 33525 33547 33557 33571 33586 33593 33595 33598 (10 flits)
Class 0:
Remaining flits: 33496 33520 33525 33547 33557 33571 33586 33593 33595 33598 (10 flits)
Measured flits: 33496 33520 33525 33547 33557 33571 33586 33593 33595 33598 (10 flits)
Class 0:
Remaining flits: 33496 33520 33525 33547 33557 33571 33586 33593 33595 33598 (10 flits)
Measured flits: 33496 33520 33525 33547 33557 33571 33586 33593 33595 33598 (10 flits)
Class 0:
Remaining flits: 33496 33520 33525 33547 33557 33571 33586 33593 33595 33598 (10 flits)
Measured flits: 33496 33520 33525 33547 33557 33571 33586 33593 33595 33598 (10 flits)
Class 0:
Remaining flits: 33496 33520 33525 33547 33557 33571 33586 33593 33595 33598 (10 flits)
Measured flits: 33496 33520 33525 33547 33557 33571 33586 33593 33595 33598 (10 flits)
Class 0:
Remaining flits: 33496 33520 33525 33547 33557 33571 33586 33593 33595 33598 (10 flits)
Measured flits: 33496 33520 33525 33547 33557 33571 33586 33593 33595 33598 (10 flits)
Class 0:
Remaining flits: 33496 33520 33525 33547 33557 33571 33586 33593 33595 33598 (10 flits)
Measured flits: 33496 33520 33525 33547 33557 33571 33586 33593 33595 33598 (10 flits)
Class 0:
Remaining flits: 33496 33520 33525 33547 33557 33571 33586 33593 33595 33598 (10 flits)
Measured flits: 33496 33520 33525 33547 33557 33571 33586 33593 33595 33598 (10 flits)
Class 0:
Remaining flits: 33496 33520 33525 33547 33557 33571 33586 33593 33595 33598 (10 flits)
Measured flits: 33496 33520 33525 33547 33557 33571 33586 33593 33595 33598 (10 flits)
Class 0:
Remaining flits: 33496 33520 33525 33547 33557 33571 33586 33593 33595 33598 (10 flits)
Measured flits: 33496 33520 33525 33547 33557 33571 33586 33593 33595 33598 (10 flits)
Class 0:
Remaining flits: 33496 33520 33525 33547 33557 33571 33586 33593 33595 33598 (10 flits)
Measured flits: 33496 33520 33525 33547 33557 33571 33586 33593 33595 33598 (10 flits)
Time taken is 7000 cycles
====== Traffic class 0 ======

Total number of flits generated = 33599, changed lanes = 32866
Overall minimum packet latency = 163 (1 samples)
Overall average packet latency = 711.726 (1 samples)
Overall maximum packet latency = 1530 (1 samples)
Overall minimum network latency = 36 (1 samples)
Overall average network latency = 89.1575 (1 samples)
Overall maximum network latency = 285 (1 samples)
Overall minimum flit latency = 36 (1 samples)
Overall average flit latency = 89.585 (1 samples)
Overall maximum flit latency = 285 (1 samples)
Overall minimum fragmentation = 0 (1 samples)
Overall average fragmentation = 0 (1 samples)
Overall maximum fragmentation = 0 (1 samples)
Overall minimum injected packet rate = 0.309333 (1 samples)
Overall average injected packet rate = 0.347271 (1 samples)
Overall maximum injected packet rate = 0.380333 (1 samples)
Overall minimum accepted packet rate = 0.319333 (1 samples)
Overall average accepted packet rate = 0.347833 (1 samples)
Overall maximum accepted packet rate = 0.358333 (1 samples)
Overall minimum injected flit rate = 0.309333 (1 samples)
Overall average injected flit rate = 0.347271 (1 samples)
Overall maximum injected flit rate = 0.380333 (1 samples)
Overall minimum accepted flit rate = 0.319333 (1 samples)
Overall average accepted flit rate = 0.347833 (1 samples)
Overall maximum accepted flit rate = 0.358333 (1 samples)
Overall average injected packet size = 1 (1 samples)
Overall average accepted packet size = 1 (1 samples)
Overall average hops = 3.52206 (1 samples)
Overall throughput of the network (flits/cycle) = 11.1963
Overall throughput of the network (packets/cycle) = 11.1963
Total run time 12370.6
