g++ -Wall -I. -Iarbiters -Iallocators -Irouters -Inetworks -Ipower  -O3 -g -MMD -c booksim_config.cpp -o booksim_config.o
g++  batchtrafficmanager.o booksim_config.o buffer.o buffer_state.o config_utils.o credit.o flitchannel.o flit.o injection.o main.o misc_utils.o module.o outputset.o random_utils.o rng_double_wrapper.o rng_wrapper.o routefunc.o stats.o steadystatetrafficmanager.o synthetictrafficmanager.o traffic.o trafficmanager.o vc.o workload.o workloadtrafficmanager.o allocators/allocator.o allocators/islip.o allocators/loa.o allocators/maxsize.o allocators/pim.o allocators/selalloc.o allocators/separable.o allocators/separable_input_first.o allocators/separable_output_first.o allocators/wavefront.o arbiters/arbiter.o arbiters/matrix_arb.o arbiters/prio_arb.o arbiters/roundrobin_arb.o arbiters/tree_arb.o networks/anynet.o networks/cmesh.o networks/dragonfly.o networks/fattree.o networks/flatfly_onchip.o networks/fly.o networks/kncube.o networks/network.o networks/qtree.o networks/tree4.o power/buffer_monitor.o power/power_module.o power/switch_monitor.o routers/iq_router.o routers/router.o routers/socket_lib.o lex.yy.o y.tab.o netrace/netrace.o -o booksim
Master: Running timer....
Master: Running SRC....
BEGIN Configuration File: ./examples/bitrev
// Topology

topology = mesh;
k = 4;
n = 2;

// Routing
routing_function = dor;

// Flow control
num_vcs     = 4;
vc_buf_size = 4;
wait_for_tail_credit = 0;

// Router architecture
vc_allocator = islip;
sw_allocator = islip;
alloc_iters  = 1;

credit_delay   = 1;
routing_delay  = 1;
vc_alloc_delay = 1;
sw_alloc_delay = 1;

input_speedup     = 1;
output_speedup    = 1;
internal_speedup  = 1.0;

vc_busy_when_full = 0;

// Traffic
traffic = uniform;
packet_size = 1;

// Simulation
sim_type = throughput;

injection_rate = 0.31;

END Configuration File: ./examples/bitrev
===== Time: 1000 =====
Class 0:
Minimum packet latency = 7
Average packet latency = 39.4405
Maximum packet latency = 124
Minimum network latency = 8
Average network latency = 40.4405
Maximum network latency = 125
Slowest packet = 1360
Minimum flit latency = 8
Average flit latency = 40.4405
Maximum flit latency = 125
Slowest flit = 1360
Minimum fragmentation = 0
Average fragmentation = 0
Maximum fragmentation = 0
Minimum injected packet rate = 0.28 (at node 9)
Average injected packet rate = 0.30625
Maximum injected packet rate = 0.331 (at node 11)
Minimum accepted packet rate = 0.271 (at node 4)
Average accepted packet rate = 0.294438
Maximum accepted packet rate = 0.32 (at node 8)
Minimum injected flit rate = 0.28 (at node 9)
Average injected flit rate = 0.30625
Maximum injected flit rate = 0.331 (at node 11)
Minimum accepted flit rate = 0.271 (at node 4)
Average accepted flit rate = 0.294438
Maximum accepted flit rate = 0.32 (at node 8)
Total number of injected packets = 4900
Total number of injected flits = 4900
Average injected packet length = 1
Total number of accepted packets = 4711
Total number of accepted flits = 4711
Average accepted packet length = 1
Total in-flight flits = 189 (0 measured)
===== Time: 2000 =====
Class 0:
Minimum packet latency = 7
Average packet latency = 37.8311
Maximum packet latency = 124
Minimum network latency = 8
Average network latency = 38.8311
Maximum network latency = 125
Slowest packet = 1360
Minimum flit latency = 8
Average flit latency = 38.8311
Maximum flit latency = 125
Slowest flit = 1360
Minimum fragmentation = 0
Average fragmentation = 0
Maximum fragmentation = 0
Minimum injected packet rate = 0.2845 (at node 9)
Average injected packet rate = 0.305719
Maximum injected packet rate = 0.327 (at node 2)
Minimum accepted packet rate = 0.267 (at node 4)
Average accepted packet rate = 0.3
Maximum accepted packet rate = 0.3205 (at node 7)
Minimum injected flit rate = 0.2845 (at node 9)
Average injected flit rate = 0.305719
Maximum injected flit rate = 0.327 (at node 2)
Minimum accepted flit rate = 0.267 (at node 4)
Average accepted flit rate = 0.3
Maximum accepted flit rate = 0.3205 (at node 7)
Total number of injected packets = 9783
Total number of injected flits = 9783
Average injected packet length = 1
Total number of accepted packets = 9600
Total number of accepted flits = 9600
Average accepted packet length = 1
Total in-flight flits = 183 (0 measured)
===== Time: 3000 =====
Class 0:
Minimum packet latency = 7
Average packet latency = 40.0625
Maximum packet latency = 144
Minimum network latency = 8
Average network latency = 41.0527
Maximum network latency = 145
Slowest packet = 12996
Minimum flit latency = 8
Average flit latency = 41.0527
Maximum flit latency = 145
Slowest flit = 12996
Minimum fragmentation = 0
Average fragmentation = 0
Maximum fragmentation = 0
Minimum injected packet rate = 0.293 (at node 4)
Average injected packet rate = 0.311937
Maximum injected packet rate = 0.338 (at node 6)
Minimum accepted packet rate = 0.279 (at node 13)
Average accepted packet rate = 0.310937
Maximum accepted packet rate = 0.357 (at node 8)
Minimum injected flit rate = 0.293 (at node 4)
Average injected flit rate = 0.311937
Maximum injected flit rate = 0.338 (at node 6)
Minimum accepted flit rate = 0.279 (at node 13)
Average accepted flit rate = 0.310937
Maximum accepted flit rate = 0.357 (at node 8)
Total number of injected packets = 4991
Total number of injected flits = 4991
Average injected packet length = 1
Total number of accepted packets = 4975
Total number of accepted flits = 4975
Average accepted packet length = 1
Total in-flight flits = 199 (0 measured)
===== Time: 4000 =====
Class 0:
Minimum packet latency = 7
Average packet latency = 37.6843
Maximum packet latency = 114
Minimum network latency = 8
Average network latency = 38.6843
Maximum network latency = 115
Slowest packet = 17720
Minimum flit latency = 8
Average flit latency = 38.9451
Maximum flit latency = 115
Slowest flit = 17720
Minimum fragmentation = 0
Average fragmentation = 0
Maximum fragmentation = 0
Minimum injected packet rate = 0.27 (at node 14)
Average injected packet rate = 0.31025
Maximum injected packet rate = 0.35 (at node 10)
Minimum accepted packet rate = 0.278 (at node 10)
Average accepted packet rate = 0.309563
Maximum accepted packet rate = 0.325 (at node 9)
Minimum injected flit rate = 0.27 (at node 14)
Average injected flit rate = 0.31025
Maximum injected flit rate = 0.35 (at node 10)
Minimum accepted flit rate = 0.278 (at node 10)
Average accepted flit rate = 0.309563
Maximum accepted flit rate = 0.325 (at node 9)
Total number of injected packets = 4964
Total number of injected flits = 4964
Average injected packet length = 1
Total number of accepted packets = 4953
Total number of accepted flits = 4953
Average accepted packet length = 1
Total in-flight flits = 210 (210 measured)
===== Time: 5000 =====
Class 0:
Minimum packet latency = 7
Average packet latency = 37.7867
Maximum packet latency = 114
Minimum network latency = 8
Average network latency = 38.7867
Maximum network latency = 115
Slowest packet = 17720
Minimum flit latency = 8
Average flit latency = 38.9154
Maximum flit latency = 115
Slowest flit = 17720
Minimum fragmentation = 0
Average fragmentation = 0
Maximum fragmentation = 0
Minimum injected packet rate = 0.2805 (at node 14)
Average injected packet rate = 0.308156
Maximum injected packet rate = 0.325 (at node 13)
Minimum accepted packet rate = 0.282 (at node 4)
Average accepted packet rate = 0.308719
Maximum accepted packet rate = 0.324 (at node 3)
Minimum injected flit rate = 0.2805 (at node 14)
Average injected flit rate = 0.308156
Maximum injected flit rate = 0.325 (at node 13)
Minimum accepted flit rate = 0.282 (at node 4)
Average accepted flit rate = 0.308719
Maximum accepted flit rate = 0.324 (at node 3)
Total number of injected packets = 9861
Total number of injected flits = 9861
Average injected packet length = 1
Total number of accepted packets = 9879
Total number of accepted flits = 9879
Average accepted packet length = 1
Total in-flight flits = 181 (181 measured)
===== Time: 6000 =====
Class 0:
Minimum packet latency = 7
Average packet latency = 38.1961
Maximum packet latency = 136
Minimum network latency = 8
Average network latency = 39.1959
Maximum network latency = 137
Slowest packet = 26455
Minimum flit latency = 8
Average flit latency = 39.276
Maximum flit latency = 137
Slowest flit = 26455
Minimum fragmentation = 0
Average fragmentation = 0
Maximum fragmentation = 0
Minimum injected packet rate = 0.291 (at node 14)
Average injected packet rate = 0.309021
Maximum injected packet rate = 0.328667 (at node 13)
Minimum accepted packet rate = 0.281667 (at node 4)
Average accepted packet rate = 0.309312
Maximum accepted packet rate = 0.319 (at node 3)
Minimum injected flit rate = 0.291 (at node 14)
Average injected flit rate = 0.309021
Maximum injected flit rate = 0.328667 (at node 13)
Minimum accepted flit rate = 0.281667 (at node 4)
Average accepted flit rate = 0.309312
Maximum accepted flit rate = 0.319 (at node 3)
Total number of injected packets = 14833
Total number of injected flits = 14833
Average injected packet length = 1
Total number of accepted packets = 14847
Total number of accepted flits = 14847
Average accepted packet length = 1
Total in-flight flits = 185 (185 measured)
Draining remaining packets ...
Class 0:
Remaining flits: 29234 29267 29300 29330 29338 29354 29378 29379 29383 29387 [...] (139 flits)
Measured flits: 29234 29267 29300 29330 29338 29354 29378 29379 29383 29387 [...] (139 flits)
Class 0:
Remaining flits: 29234 29267 29300 29330 29338 29378 29383 29387 29393 29398 [...] (98 flits)
Measured flits: 29234 29267 29300 29330 29338 29378 29383 29387 29393 29398 [...] (98 flits)
Class 0:
Remaining flits: 29300 29330 29338 29406 29437 29441 29473 29481 29487 29491 [...] (53 flits)
Measured flits: 29300 29330 29338 29406 29437 29441 29473 29481 29487 29491 [...] (53 flits)
Class 0:
Remaining flits: 29300 29338 29406 29491 29502 29516 29526 29548 29553 29556 [...] (29 flits)
Measured flits: 29300 29338 29406 29491 29502 29516 29526 29548 29553 29556 [...] (29 flits)
Class 0:
Remaining flits: 29406 29526 29548 29553 29556 29568 29569 29575 29581 29582 [...] (14 flits)
Measured flits: 29406 29526 29548 29553 29556 29568 29569 29575 29581 29582 [...] (14 flits)
Class 0:
Remaining flits: 29568 29569 29575 29582 29601 29606 (6 flits)
Measured flits: 29568 29569 29575 29582 29601 29606 (6 flits)
Class 0:
Remaining flits: 29569 29582 29601 29606 (4 flits)
Measured flits: 29569 29582 29601 29606 (4 flits)
Class 0:
Remaining flits: 29569 29582 29601 29606 (4 flits)
Measured flits: 29569 29582 29601 29606 (4 flits)
Class 0:
Remaining flits: 29569 29582 29601 29606 (4 flits)
Measured flits: 29569 29582 29601 29606 (4 flits)
Class 0:
Remaining flits: 29569 29582 29601 29606 (4 flits)
Measured flits: 29569 29582 29601 29606 (4 flits)
Class 0:
Remaining flits: 29569 29582 29601 29606 (4 flits)
Measured flits: 29569 29582 29601 29606 (4 flits)
Class 0:
Remaining flits: 29569 29582 29601 29606 (4 flits)
Measured flits: 29569 29582 29601 29606 (4 flits)
Class 0:
Remaining flits: 29569 29582 29601 29606 (4 flits)
Measured flits: 29569 29582 29601 29606 (4 flits)
Class 0:
Remaining flits: 29569 29582 29601 29606 (4 flits)
Measured flits: 29569 29582 29601 29606 (4 flits)
Class 0:
Remaining flits: 29569 29582 29601 29606 (4 flits)
Measured flits: 29569 29582 29601 29606 (4 flits)
Class 0:
Remaining flits: 29569 29582 29601 29606 (4 flits)
Measured flits: 29569 29582 29601 29606 (4 flits)
Class 0:
Remaining flits: 29569 29582 29601 29606 (4 flits)
Measured flits: 29569 29582 29601 29606 (4 flits)
Class 0:
Remaining flits: 29569 29582 29601 29606 (4 flits)
Measured flits: 29569 29582 29601 29606 (4 flits)
Class 0:
Remaining flits: 29569 29582 29601 29606 (4 flits)
Measured flits: 29569 29582 29601 29606 (4 flits)
Class 0:
Remaining flits: 29569 29582 29601 29606 (4 flits)
Measured flits: 29569 29582 29601 29606 (4 flits)
Class 0:
Remaining flits: 29569 29582 29601 29606 (4 flits)
Measured flits: 29569 29582 29601 29606 (4 flits)
Class 0:
Remaining flits: 29569 29582 29601 29606 (4 flits)
Measured flits: 29569 29582 29601 29606 (4 flits)
Class 0:
Remaining flits: 29569 29582 29601 29606 (4 flits)
Measured flits: 29569 29582 29601 29606 (4 flits)
Class 0:
Remaining flits: 29569 29582 29601 29606 (4 flits)
Measured flits: 29569 29582 29601 29606 (4 flits)
Class 0:
Remaining flits: 29569 29582 29601 29606 (4 flits)
Measured flits: 29569 29582 29601 29606 (4 flits)
Class 0:
Remaining flits: 29569 29582 29601 29606 (4 flits)
Measured flits: 29569 29582 29601 29606 (4 flits)
Class 0:
Remaining flits: 29569 29582 29601 29606 (4 flits)
Measured flits: 29569 29582 29601 29606 (4 flits)
Class 0:
Remaining flits: 29569 29582 29601 29606 (4 flits)
Measured flits: 29569 29582 29601 29606 (4 flits)
Class 0:
Remaining flits: 29569 29582 29601 29606 (4 flits)
Measured flits: 29569 29582 29601 29606 (4 flits)
Class 0:
Remaining flits: 29569 29582 29601 29606 (4 flits)
Measured flits: 29569 29582 29601 29606 (4 flits)
Class 0:
Remaining flits: 29569 29582 29601 29606 (4 flits)
Measured flits: 29569 29582 29601 29606 (4 flits)
Class 0:
Remaining flits: 29569 29582 29601 29606 (4 flits)
Measured flits: 29569 29582 29601 29606 (4 flits)
Class 0:
Remaining flits: 29569 29582 29601 29606 (4 flits)
Measured flits: 29569 29582 29601 29606 (4 flits)
Class 0:
Remaining flits: 29569 29582 29601 29606 (4 flits)
Measured flits: 29569 29582 29601 29606 (4 flits)
Class 0:
Remaining flits: 29569 29582 29601 29606 (4 flits)
Measured flits: 29569 29582 29601 29606 (4 flits)
Class 0:
Remaining flits: 29569 29582 29601 29606 (4 flits)
Measured flits: 29569 29582 29601 29606 (4 flits)
Class 0:
Remaining flits: 29569 29582 29601 29606 (4 flits)
Measured flits: 29569 29582 29601 29606 (4 flits)
Class 0:
Remaining flits: 29569 29582 29601 29606 (4 flits)
Measured flits: 29569 29582 29601 29606 (4 flits)
Class 0:
Remaining flits: 29569 29582 29601 29606 (4 flits)
Measured flits: 29569 29582 29601 29606 (4 flits)
Class 0:
Remaining flits: 29569 29582 29601 29606 (4 flits)
Measured flits: 29569 29582 29601 29606 (4 flits)
Class 0:
Remaining flits: 29569 29582 29601 29606 (4 flits)
Measured flits: 29569 29582 29601 29606 (4 flits)
Class 0:
Remaining flits: 29569 29582 29601 29606 (4 flits)
Measured flits: 29569 29582 29601 29606 (4 flits)
Class 0:
Remaining flits: 29569 29582 29601 29606 (4 flits)
Measured flits: 29569 29582 29601 29606 (4 flits)
Class 0:
Remaining flits: 29569 29582 29601 29606 (4 flits)
Measured flits: 29569 29582 29601 29606 (4 flits)
Class 0:
Remaining flits: 29569 29582 29601 29606 (4 flits)
Measured flits: 29569 29582 29601 29606 (4 flits)
Class 0:
Remaining flits: 29569 29582 29601 29606 (4 flits)
Measured flits: 29569 29582 29601 29606 (4 flits)
Class 0:
Remaining flits: 29569 29582 29601 29606 (4 flits)
Measured flits: 29569 29582 29601 29606 (4 flits)
Class 0:
Remaining flits: 29569 29582 29601 29606 (4 flits)
Measured flits: 29569 29582 29601 29606 (4 flits)
Class 0:
Remaining flits: 29569 29582 29601 29606 (4 flits)
Measured flits: 29569 29582 29601 29606 (4 flits)
Class 0:
Remaining flits: 29569 29582 29601 29606 (4 flits)
Measured flits: 29569 29582 29601 29606 (4 flits)
Class 0:
Remaining flits: 29569 29582 29601 29606 (4 flits)
Measured flits: 29569 29582 29601 29606 (4 flits)
Class 0:
Remaining flits: 29569 29582 29601 29606 (4 flits)
Measured flits: 29569 29582 29601 29606 (4 flits)
Class 0:
Remaining flits: 29569 29582 29601 29606 (4 flits)
Measured flits: 29569 29582 29601 29606 (4 flits)
Class 0:
Remaining flits: 29569 29582 29601 29606 (4 flits)
Measured flits: 29569 29582 29601 29606 (4 flits)
Class 0:
Remaining flits: 29569 29582 29601 29606 (4 flits)
Measured flits: 29569 29582 29601 29606 (4 flits)
Class 0:
Remaining flits: 29569 29582 29601 29606 (4 flits)
Measured flits: 29569 29582 29601 29606 (4 flits)
Class 0:
Remaining flits: 29569 29582 29601 29606 (4 flits)
Measured flits: 29569 29582 29601 29606 (4 flits)
Class 0:
Remaining flits: 29569 29582 29601 29606 (4 flits)
Measured flits: 29569 29582 29601 29606 (4 flits)
Class 0:
Remaining flits: 29569 29582 29601 29606 (4 flits)
Measured flits: 29569 29582 29601 29606 (4 flits)
Class 0:
Remaining flits: 29569 29582 29601 29606 (4 flits)
Measured flits: 29569 29582 29601 29606 (4 flits)
Class 0:
Remaining flits: 29569 29582 29601 29606 (4 flits)
Measured flits: 29569 29582 29601 29606 (4 flits)
Class 0:
Remaining flits: 29569 29582 29601 29606 (4 flits)
Measured flits: 29569 29582 29601 29606 (4 flits)
Class 0:
Remaining flits: 29569 29582 29601 29606 (4 flits)
Measured flits: 29569 29582 29601 29606 (4 flits)
Class 0:
Remaining flits: 29569 29582 29601 29606 (4 flits)
Measured flits: 29569 29582 29601 29606 (4 flits)
Class 0:
Remaining flits: 29569 29582 29601 29606 (4 flits)
Measured flits: 29569 29582 29601 29606 (4 flits)
Class 0:
Remaining flits: 29569 29582 29601 29606 (4 flits)
Measured flits: 29569 29582 29601 29606 (4 flits)
Class 0:
Remaining flits: 29569 29582 29601 29606 (4 flits)
Measured flits: 29569 29582 29601 29606 (4 flits)
Class 0:
Remaining flits: 29569 29582 29601 29606 (4 flits)
Measured flits: 29569 29582 29601 29606 (4 flits)
Class 0:
Remaining flits: 29569 29582 29601 29606 (4 flits)
Measured flits: 29569 29582 29601 29606 (4 flits)
Class 0:
Remaining flits: 29569 29582 29601 29606 (4 flits)
Measured flits: 29569 29582 29601 29606 (4 flits)
Class 0:
Remaining flits: 29569 29582 29601 29606 (4 flits)
Measured flits: 29569 29582 29601 29606 (4 flits)
Class 0:
Remaining flits: 29569 29582 29601 29606 (4 flits)
Measured flits: 29569 29582 29601 29606 (4 flits)
Class 0:
Remaining flits: 29569 29582 29601 29606 (4 flits)
Measured flits: 29569 29582 29601 29606 (4 flits)
Class 0:
Remaining flits: 29569 29582 29601 29606 (4 flits)
Measured flits: 29569 29582 29601 29606 (4 flits)
Class 0:
Remaining flits: 29569 29582 29601 29606 (4 flits)
Measured flits: 29569 29582 29601 29606 (4 flits)
Class 0:
Remaining flits: 29569 29582 29601 29606 (4 flits)
Measured flits: 29569 29582 29601 29606 (4 flits)
Class 0:
Remaining flits: 29569 29582 29601 29606 (4 flits)
Measured flits: 29569 29582 29601 29606 (4 flits)
Class 0:
Remaining flits: 29569 29582 29601 29606 (4 flits)
Measured flits: 29569 29582 29601 29606 (4 flits)
Class 0:
Remaining flits: 29569 29582 29601 29606 (4 flits)
Measured flits: 29569 29582 29601 29606 (4 flits)
Class 0:
Remaining flits: 29569 29582 29601 29606 (4 flits)
Measured flits: 29569 29582 29601 29606 (4 flits)
Class 0:
Remaining flits: 29569 29582 29601 29606 (4 flits)
Measured flits: 29569 29582 29601 29606 (4 flits)
Class 0:
Remaining flits: 29569 29582 29601 29606 (4 flits)
Measured flits: 29569 29582 29601 29606 (4 flits)
Class 0:
Remaining flits: 29569 29582 29601 29606 (4 flits)
Measured flits: 29569 29582 29601 29606 (4 flits)
Class 0:
Remaining flits: 29569 29582 29601 29606 (4 flits)
Measured flits: 29569 29582 29601 29606 (4 flits)
Class 0:
Remaining flits: 29569 29582 29601 29606 (4 flits)
Measured flits: 29569 29582 29601 29606 (4 flits)
Class 0:
Remaining flits: 29569 29582 29601 29606 (4 flits)
Measured flits: 29569 29582 29601 29606 (4 flits)
Class 0:
Remaining flits: 29569 29582 29601 29606 (4 flits)
Measured flits: 29569 29582 29601 29606 (4 flits)
Class 0:
Remaining flits: 29569 29582 29601 29606 (4 flits)
Measured flits: 29569 29582 29601 29606 (4 flits)
Class 0:
Remaining flits: 29569 29582 29601 29606 (4 flits)
Measured flits: 29569 29582 29601 29606 (4 flits)
Class 0:
Remaining flits: 29569 29582 29601 29606 (4 flits)
Measured flits: 29569 29582 29601 29606 (4 flits)
Class 0:
Remaining flits: 29569 29582 29601 29606 (4 flits)
Measured flits: 29569 29582 29601 29606 (4 flits)
Class 0:
Remaining flits: 29569 29582 29601 29606 (4 flits)
Measured flits: 29569 29582 29601 29606 (4 flits)
Class 0:
Remaining flits: 29569 29582 29601 29606 (4 flits)
Measured flits: 29569 29582 29601 29606 (4 flits)
Class 0:
Remaining flits: 29569 29582 29601 29606 (4 flits)
Measured flits: 29569 29582 29601 29606 (4 flits)
Class 0:
Remaining flits: 29569 29582 29601 29606 (4 flits)
Measured flits: 29569 29582 29601 29606 (4 flits)
Class 0:
Remaining flits: 29569 29582 29601 29606 (4 flits)
Measured flits: 29569 29582 29601 29606 (4 flits)
Class 0:
Remaining flits: 29569 29582 29601 29606 (4 flits)
Measured flits: 29569 29582 29601 29606 (4 flits)
Class 0:
Remaining flits: 29569 29582 29601 29606 (4 flits)
Measured flits: 29569 29582 29601 29606 (4 flits)
Class 0:
Remaining flits: 29569 29582 29601 29606 (4 flits)
Measured flits: 29569 29582 29601 29606 (4 flits)
Class 0:
Remaining flits: 29569 29582 29601 29606 (4 flits)
Measured flits: 29569 29582 29601 29606 (4 flits)
Class 0:
Remaining flits: 29569 29582 29601 29606 (4 flits)
Measured flits: 29569 29582 29601 29606 (4 flits)
Time taken is 7000 cycles
====== Traffic class 0 ======

Total number of flits generated = 29607, changed lanes = 28766
Overall minimum packet latency = 7 (1 samples)
Overall average packet latency = 38.2973 (1 samples)
Overall maximum packet latency = 136 (1 samples)
Overall minimum network latency = 8 (1 samples)
Overall average network latency = 39.2971 (1 samples)
Overall maximum network latency = 137 (1 samples)
Overall minimum flit latency = 8 (1 samples)
Overall average flit latency = 39.3749 (1 samples)
Overall maximum flit latency = 137 (1 samples)
Overall minimum fragmentation = 0 (1 samples)
Overall average fragmentation = 0 (1 samples)
Overall maximum fragmentation = 0 (1 samples)
Overall minimum injected packet rate = 0.291 (1 samples)
Overall average injected packet rate = 0.309021 (1 samples)
Overall maximum injected packet rate = 0.328667 (1 samples)
Overall minimum accepted packet rate = 0.281667 (1 samples)
Overall average accepted packet rate = 0.309312 (1 samples)
Overall maximum accepted packet rate = 0.319 (1 samples)
Overall minimum injected flit rate = 0.291 (1 samples)
Overall average injected flit rate = 0.309021 (1 samples)
Overall maximum injected flit rate = 0.328667 (1 samples)
Overall minimum accepted flit rate = 0.281667 (1 samples)
Overall average accepted flit rate = 0.309312 (1 samples)
Overall maximum accepted flit rate = 0.319 (1 samples)
Overall average injected packet size = 1 (1 samples)
Overall average accepted packet size = 1 (1 samples)
Overall average hops = 3.50293 (1 samples)
Overall throughput of the network (flits/cycle) = 9.86767
Overall throughput of the network (packets/cycle) = 9.86767
Total run time 954.589
