make: Nothing to be done for `all'.
Master: Running timer....
Master: Running SRC....
BEGIN Configuration File: ./examples/bitrev
// Topology

topology = mesh;
k = 4;
n = 2;

// Routing
routing_function = dor;

// Flow control
num_vcs     = 4;
vc_buf_size = 4;
wait_for_tail_credit = 0;

// Router architecture
vc_allocator = islip;
sw_allocator = islip;
alloc_iters  = 1;

credit_delay   = 1;
routing_delay  = 1;
vc_alloc_delay = 1;
sw_alloc_delay = 1;

input_speedup     = 1;
output_speedup    = 1;
internal_speedup  = 1.0;

vc_busy_when_full = 0;

// Traffic
traffic = uniform;
packet_size = 1;

// Simulation
sim_type = throughput;

injection_rate = 0.15;

END Configuration File: ./examples/bitrev
===== Time: 10000 =====
Class 0:
Minimum packet latency = 7
Average packet latency = 29.2646
Maximum packet latency = 144
Minimum network latency = 8
Average network latency = 30.2646
Maximum network latency = 145
Slowest packet = 3374
Minimum flit latency = 8
Average flit latency = 30.2646
Maximum flit latency = 145
Slowest flit = 3374
Minimum fragmentation = 0
Average fragmentation = 0
Maximum fragmentation = 0
Minimum injected packet rate = 0.1423 (at node 7)
Average injected packet rate = 0.148669
Maximum injected packet rate = 0.1528 (at node 15)
Minimum accepted packet rate = 0.1345 (at node 4)
Average accepted packet rate = 0.14825
Maximum accepted packet rate = 0.1573 (at node 8)
Minimum injected flit rate = 0.1423 (at node 7)
Average injected flit rate = 0.148669
Maximum injected flit rate = 0.1528 (at node 15)
Minimum accepted flit rate = 0.1345 (at node 4)
Average accepted flit rate = 0.14825
Maximum accepted flit rate = 0.1573 (at node 8)
Total number of injected packets = 23787
Total number of injected flits = 23787
Average injected packet length = 1
Total number of accepted packets = 23720
Total number of accepted flits = 23720
Average accepted packet length = 1
Total in-flight flits = 67 (0 measured)
===== Time: 20000 =====
Class 0:
Minimum packet latency = 7
Average packet latency = 29.077
Maximum packet latency = 144
Minimum network latency = 8
Average network latency = 30.077
Maximum network latency = 145
Slowest packet = 3374
Minimum flit latency = 8
Average flit latency = 30.077
Maximum flit latency = 145
Slowest flit = 3374
Minimum fragmentation = 0
Average fragmentation = 0
Maximum fragmentation = 0
Minimum injected packet rate = 0.1464 (at node 7)
Average injected packet rate = 0.149669
Maximum injected packet rate = 0.15495 (at node 10)
Minimum accepted packet rate = 0.1412 (at node 4)
Average accepted packet rate = 0.149472
Maximum accepted packet rate = 0.1562 (at node 7)
Minimum injected flit rate = 0.1464 (at node 7)
Average injected flit rate = 0.149669
Maximum injected flit rate = 0.15495 (at node 10)
Minimum accepted flit rate = 0.1412 (at node 4)
Average accepted flit rate = 0.149472
Maximum accepted flit rate = 0.1562 (at node 7)
Total number of injected packets = 47894
Total number of injected flits = 47894
Average injected packet length = 1
Total number of accepted packets = 47831
Total number of accepted flits = 47831
Average accepted packet length = 1
Total in-flight flits = 63 (0 measured)
===== Time: 30000 =====
Class 0:
Minimum packet latency = 7
Average packet latency = 28.8586
Maximum packet latency = 212
Minimum network latency = 8
Average network latency = 29.8586
Maximum network latency = 213
Slowest packet = 52819
Minimum flit latency = 8
Average flit latency = 29.8586
Maximum flit latency = 213
Slowest flit = 52819
Minimum fragmentation = 0
Average fragmentation = 0
Maximum fragmentation = 0
Minimum injected packet rate = 0.0488 (at node 7)
Average injected packet rate = 0.142262
Maximum injected packet rate = 0.1537 (at node 0)
Minimum accepted packet rate = 0.1376 (at node 12)
Average accepted packet rate = 0.142031
Maximum accepted packet rate = 0.1473 (at node 15)
Minimum injected flit rate = 0.0488 (at node 7)
Average injected flit rate = 0.142262
Maximum injected flit rate = 0.1537 (at node 0)
Minimum accepted flit rate = 0.1376 (at node 12)
Average accepted flit rate = 0.142031
Maximum accepted flit rate = 0.1473 (at node 15)
Total number of injected packets = 22762
Total number of injected flits = 22762
Average injected packet length = 1
Total number of accepted packets = 22725
Total number of accepted flits = 22725
Average accepted packet length = 1
Total in-flight flits = 101 (0 measured)
===== Time: 40000 =====
Class 0:
Minimum packet latency = 7
Average packet latency = 28.6317
Maximum packet latency = 110
Minimum network latency = 8
Average network latency = 29.6317
Maximum network latency = 111
Slowest packet = 74194
Minimum flit latency = 8
Average flit latency = 29.6459
Maximum flit latency = 111
Slowest flit = 74194
Minimum fragmentation = 0
Average fragmentation = 0
Maximum fragmentation = 0
Minimum injected packet rate = 0 (at node 7)
Average injected packet rate = 0.141275
Maximum injected packet rate = 0.1567 (at node 5)
Minimum accepted packet rate = 0.1331 (at node 13)
Average accepted packet rate = 0.141325
Maximum accepted packet rate = 0.1513 (at node 4)
Minimum injected flit rate = 0 (at node 7)
Average injected flit rate = 0.141275
Maximum injected flit rate = 0.1567 (at node 5)
Minimum accepted flit rate = 0.1331 (at node 13)
Average accepted flit rate = 0.141325
Maximum accepted flit rate = 0.1513 (at node 4)
Total number of injected packets = 22604
Total number of injected flits = 22604
Average injected packet length = 1
Total number of accepted packets = 22612
Total number of accepted flits = 22612
Average accepted packet length = 1
Total in-flight flits = 93 (71 measured)
===== Time: 50000 =====
Class 0:
Minimum packet latency = 7
Average packet latency = 28.7476
Maximum packet latency = 156
Minimum network latency = 8
Average network latency = 29.7476
Maximum network latency = 157
Slowest packet = 111515
Minimum flit latency = 8
Average flit latency = 29.7545
Maximum flit latency = 157
Slowest flit = 111515
Minimum fragmentation = 0
Average fragmentation = 0
Maximum fragmentation = 0
Minimum injected packet rate = 0 (at node 7)
Average injected packet rate = 0.140856
Maximum injected packet rate = 0.15565 (at node 3)
Minimum accepted packet rate = 0.1362 (at node 13)
Average accepted packet rate = 0.140872
Maximum accepted packet rate = 0.1455 (at node 4)
Minimum injected flit rate = 0 (at node 7)
Average injected flit rate = 0.140856
Maximum injected flit rate = 0.15565 (at node 3)
Minimum accepted flit rate = 0.1362 (at node 13)
Average accepted flit rate = 0.140872
Maximum accepted flit rate = 0.1455 (at node 4)
Total number of injected packets = 45074
Total number of injected flits = 45074
Average injected packet length = 1
Total number of accepted packets = 45079
Total number of accepted flits = 45079
Average accepted packet length = 1
Total in-flight flits = 96 (74 measured)
===== Time: 60000 =====
Class 0:
Minimum packet latency = 7
Average packet latency = 28.7405
Maximum packet latency = 156
Minimum network latency = 8
Average network latency = 29.7405
Maximum network latency = 157
Slowest packet = 111515
Minimum flit latency = 8
Average flit latency = 29.7451
Maximum flit latency = 157
Slowest flit = 111515
Minimum fragmentation = 0
Average fragmentation = 0
Maximum fragmentation = 0
Minimum injected packet rate = 0 (at node 7)
Average injected packet rate = 0.14084
Maximum injected packet rate = 0.154967 (at node 3)
Minimum accepted packet rate = 0.138567 (at node 15)
Average accepted packet rate = 0.140863
Maximum accepted packet rate = 0.1434 (at node 3)
Minimum injected flit rate = 0 (at node 7)
Average injected flit rate = 0.14084
Maximum injected flit rate = 0.154967 (at node 3)
Minimum accepted flit rate = 0.138567 (at node 15)
Average accepted flit rate = 0.140863
Maximum accepted flit rate = 0.1434 (at node 3)
Total number of injected packets = 67603
Total number of injected flits = 67603
Average injected packet length = 1
Total number of accepted packets = 67614
Total number of accepted flits = 67614
Average accepted packet length = 1
Total in-flight flits = 90 (68 measured)
Draining remaining packets ...
Class 0:
Remaining flits: 54773 54840 54861 54893 54900 54925 54930 54939 54946 54968 [...] (63 flits)
Measured flits: 138190 138191 138197 138204 138207 138208 138209 138210 138212 138215 [...] (41 flits)
Class 0:
Remaining flits: 54773 54840 54861 54893 54900 54925 54930 54939 54946 54968 [...] (48 flits)
Measured flits: 138207 138208 138209 138210 138212 138217 138225 138229 138230 138231 [...] (26 flits)
Class 0:
Remaining flits: 54773 54840 54861 54893 54900 54925 54930 54939 54946 54968 [...] (28 flits)
Measured flits: 138208 138225 138235 138243 138244 138249 (6 flits)
Class 0:
Remaining flits: 54773 54840 54861 54893 54900 54925 54930 54939 54946 54968 [...] (26 flits)
Measured flits: 138208 138243 138244 138249 (4 flits)
Class 0:
Remaining flits: 54773 54840 54861 54893 54900 54925 54930 54939 54946 54968 [...] (24 flits)
Measured flits: 138208 138244 (2 flits)
Class 0:
Remaining flits: 54773 54840 54861 54893 54900 54925 54930 54939 54946 54968 [...] (24 flits)
Measured flits: 138208 138244 (2 flits)
Class 0:
Remaining flits: 54773 54840 54861 54893 54900 54925 54930 54939 54946 54968 [...] (24 flits)
Measured flits: 138208 138244 (2 flits)
Class 0:
Remaining flits: 54773 54840 54861 54893 54900 54925 54930 54939 54946 54968 [...] (24 flits)
Measured flits: 138208 138244 (2 flits)
Class 0:
Remaining flits: 54773 54840 54861 54893 54900 54925 54930 54939 54946 54968 [...] (24 flits)
Measured flits: 138208 138244 (2 flits)
Class 0:
Remaining flits: 54773 54840 54861 54893 54900 54925 54930 54939 54946 54968 [...] (24 flits)
Measured flits: 138208 138244 (2 flits)
Class 0:
Remaining flits: 54773 54840 54861 54893 54900 54925 54930 54939 54946 54968 [...] (24 flits)
Measured flits: 138208 138244 (2 flits)
Class 0:
Remaining flits: 54773 54840 54861 54893 54900 54925 54930 54939 54946 54968 [...] (24 flits)
Measured flits: 138208 138244 (2 flits)
Class 0:
Remaining flits: 54773 54840 54861 54893 54900 54925 54930 54939 54946 54968 [...] (24 flits)
Measured flits: 138208 138244 (2 flits)
Class 0:
Remaining flits: 54773 54840 54861 54893 54900 54925 54930 54939 54946 54968 [...] (24 flits)
Measured flits: 138208 138244 (2 flits)
Class 0:
Remaining flits: 54773 54840 54861 54893 54900 54925 54930 54939 54946 54968 [...] (24 flits)
Measured flits: 138208 138244 (2 flits)
Class 0:
Remaining flits: 54773 54840 54861 54893 54900 54925 54930 54939 54946 54968 [...] (24 flits)
Measured flits: 138208 138244 (2 flits)
Class 0:
Remaining flits: 54773 54840 54861 54893 54900 54925 54930 54939 54946 54968 [...] (24 flits)
Measured flits: 138208 138244 (2 flits)
Class 0:
Remaining flits: 54773 54840 54861 54893 54900 54925 54930 54939 54946 54968 [...] (24 flits)
Measured flits: 138208 138244 (2 flits)
Class 0:
Remaining flits: 54773 54840 54861 54893 54900 54925 54930 54939 54946 54968 [...] (24 flits)
Measured flits: 138208 138244 (2 flits)
Class 0:
Remaining flits: 54773 54840 54861 54893 54900 54925 54930 54939 54946 54968 [...] (24 flits)
Measured flits: 138208 138244 (2 flits)
Class 0:
Remaining flits: 54773 54840 54861 54893 54900 54925 54930 54939 54946 54968 [...] (24 flits)
Measured flits: 138208 138244 (2 flits)
Class 0:
Remaining flits: 54773 54840 54861 54893 54900 54925 54930 54939 54946 54968 [...] (24 flits)
Measured flits: 138208 138244 (2 flits)
Class 0:
Remaining flits: 54773 54840 54861 54893 54900 54925 54930 54939 54946 54968 [...] (24 flits)
Measured flits: 138208 138244 (2 flits)
Class 0:
Remaining flits: 54773 54840 54861 54893 54900 54925 54930 54939 54946 54968 [...] (24 flits)
Measured flits: 138208 138244 (2 flits)
Class 0:
Remaining flits: 54773 54840 54861 54893 54900 54925 54930 54939 54946 54968 [...] (24 flits)
Measured flits: 138208 138244 (2 flits)
Class 0:
Remaining flits: 54773 54840 54861 54893 54900 54925 54930 54939 54946 54968 [...] (24 flits)
Measured flits: 138208 138244 (2 flits)
Class 0:
Remaining flits: 54773 54840 54861 54893 54900 54925 54930 54939 54946 54968 [...] (24 flits)
Measured flits: 138208 138244 (2 flits)
Class 0:
Remaining flits: 54773 54840 54861 54893 54900 54925 54930 54939 54946 54968 [...] (24 flits)
Measured flits: 138208 138244 (2 flits)
Class 0:
Remaining flits: 54773 54840 54861 54893 54900 54925 54930 54939 54946 54968 [...] (24 flits)
Measured flits: 138208 138244 (2 flits)
Class 0:
Remaining flits: 54773 54840 54861 54893 54900 54925 54930 54939 54946 54968 [...] (24 flits)
Measured flits: 138208 138244 (2 flits)
Class 0:
Remaining flits: 54773 54840 54861 54893 54900 54925 54930 54939 54946 54968 [...] (24 flits)
Measured flits: 138208 138244 (2 flits)
Class 0:
Remaining flits: 54773 54840 54861 54893 54900 54925 54930 54939 54946 54968 [...] (24 flits)
Measured flits: 138208 138244 (2 flits)
Class 0:
Remaining flits: 54773 54840 54861 54893 54900 54925 54930 54939 54946 54968 [...] (24 flits)
Measured flits: 138208 138244 (2 flits)
Class 0:
Remaining flits: 54773 54840 54861 54893 54900 54925 54930 54939 54946 54968 [...] (24 flits)
Measured flits: 138208 138244 (2 flits)
Class 0:
Remaining flits: 54773 54840 54861 54893 54900 54925 54930 54939 54946 54968 [...] (24 flits)
Measured flits: 138208 138244 (2 flits)
Class 0:
Remaining flits: 54773 54840 54861 54893 54900 54925 54930 54939 54946 54968 [...] (24 flits)
Measured flits: 138208 138244 (2 flits)
Class 0:
Remaining flits: 54773 54840 54861 54893 54900 54925 54930 54939 54946 54968 [...] (24 flits)
Measured flits: 138208 138244 (2 flits)
Class 0:
Remaining flits: 54773 54840 54861 54893 54900 54925 54930 54939 54946 54968 [...] (24 flits)
Measured flits: 138208 138244 (2 flits)
Class 0:
Remaining flits: 54773 54840 54861 54893 54900 54925 54930 54939 54946 54968 [...] (24 flits)
Measured flits: 138208 138244 (2 flits)
Class 0:
Remaining flits: 54773 54840 54861 54893 54900 54925 54930 54939 54946 54968 [...] (24 flits)
Measured flits: 138208 138244 (2 flits)
Class 0:
Remaining flits: 54773 54840 54861 54893 54900 54925 54930 54939 54946 54968 [...] (24 flits)
Measured flits: 138208 138244 (2 flits)
Class 0:
Remaining flits: 54773 54840 54861 54893 54900 54925 54930 54939 54946 54968 [...] (24 flits)
Measured flits: 138208 138244 (2 flits)
Class 0:
Remaining flits: 54773 54840 54861 54893 54900 54925 54930 54939 54946 54968 [...] (24 flits)
Measured flits: 138208 138244 (2 flits)
Class 0:
Remaining flits: 54773 54840 54861 54893 54900 54925 54930 54939 54946 54968 [...] (24 flits)
Measured flits: 138208 138244 (2 flits)
Class 0:
Remaining flits: 54773 54840 54861 54893 54900 54925 54930 54939 54946 54968 [...] (24 flits)
Measured flits: 138208 138244 (2 flits)
Class 0:
Remaining flits: 54773 54840 54861 54893 54900 54925 54930 54939 54946 54968 [...] (24 flits)
Measured flits: 138208 138244 (2 flits)
Class 0:
Remaining flits: 54773 54840 54861 54893 54900 54925 54930 54939 54946 54968 [...] (24 flits)
Measured flits: 138208 138244 (2 flits)
Class 0:
Remaining flits: 54773 54840 54861 54893 54900 54925 54930 54939 54946 54968 [...] (24 flits)
Measured flits: 138208 138244 (2 flits)
Class 0:
Remaining flits: 54773 54840 54861 54893 54900 54925 54930 54939 54946 54968 [...] (24 flits)
Measured flits: 138208 138244 (2 flits)
Class 0:
Remaining flits: 54773 54840 54861 54893 54900 54925 54930 54939 54946 54968 [...] (24 flits)
Measured flits: 138208 138244 (2 flits)
Class 0:
Remaining flits: 54773 54840 54861 54893 54900 54925 54930 54939 54946 54968 [...] (24 flits)
Measured flits: 138208 138244 (2 flits)
Class 0:
Remaining flits: 54773 54840 54861 54893 54900 54925 54930 54939 54946 54968 [...] (24 flits)
Measured flits: 138208 138244 (2 flits)
Class 0:
Remaining flits: 54773 54840 54861 54893 54900 54925 54930 54939 54946 54968 [...] (24 flits)
Measured flits: 138208 138244 (2 flits)
Class 0:
Remaining flits: 54773 54840 54861 54893 54900 54925 54930 54939 54946 54968 [...] (24 flits)
Measured flits: 138208 138244 (2 flits)
Class 0:
Remaining flits: 54773 54840 54861 54893 54900 54925 54930 54939 54946 54968 [...] (24 flits)
Measured flits: 138208 138244 (2 flits)
Class 0:
Remaining flits: 54773 54840 54861 54893 54900 54925 54930 54939 54946 54968 [...] (24 flits)
Measured flits: 138208 138244 (2 flits)
Class 0:
Remaining flits: 54773 54840 54861 54893 54900 54925 54930 54939 54946 54968 [...] (24 flits)
Measured flits: 138208 138244 (2 flits)
Class 0:
Remaining flits: 54773 54840 54861 54893 54900 54925 54930 54939 54946 54968 [...] (24 flits)
Measured flits: 138208 138244 (2 flits)
Class 0:
Remaining flits: 54773 54840 54861 54893 54900 54925 54930 54939 54946 54968 [...] (24 flits)
Measured flits: 138208 138244 (2 flits)
Class 0:
Remaining flits: 54773 54840 54861 54893 54900 54925 54930 54939 54946 54968 [...] (24 flits)
Measured flits: 138208 138244 (2 flits)
Class 0:
Remaining flits: 54773 54840 54861 54893 54900 54925 54930 54939 54946 54968 [...] (24 flits)
Measured flits: 138208 138244 (2 flits)
Class 0:
Remaining flits: 54773 54840 54861 54893 54900 54925 54930 54939 54946 54968 [...] (24 flits)
Measured flits: 138208 138244 (2 flits)
Class 0:
Remaining flits: 54773 54840 54861 54893 54900 54925 54930 54939 54946 54968 [...] (24 flits)
Measured flits: 138208 138244 (2 flits)
Class 0:
Remaining flits: 54773 54840 54861 54893 54900 54925 54930 54939 54946 54968 [...] (24 flits)
Measured flits: 138208 138244 (2 flits)
Class 0:
Remaining flits: 54773 54840 54861 54893 54900 54925 54930 54939 54946 54968 [...] (24 flits)
Measured flits: 138208 138244 (2 flits)
Class 0:
Remaining flits: 54773 54840 54861 54893 54900 54925 54930 54939 54946 54968 [...] (24 flits)
Measured flits: 138208 138244 (2 flits)
Class 0:
Remaining flits: 54773 54840 54861 54893 54900 54925 54930 54939 54946 54968 [...] (24 flits)
Measured flits: 138208 138244 (2 flits)
Class 0:
Remaining flits: 54773 54840 54861 54893 54900 54925 54930 54939 54946 54968 [...] (24 flits)
Measured flits: 138208 138244 (2 flits)
Class 0:
Remaining flits: 54773 54840 54861 54893 54900 54925 54930 54939 54946 54968 [...] (24 flits)
Measured flits: 138208 138244 (2 flits)
Class 0:
Remaining flits: 54773 54840 54861 54893 54900 54925 54930 54939 54946 54968 [...] (24 flits)
Measured flits: 138208 138244 (2 flits)
Class 0:
Remaining flits: 54773 54840 54861 54893 54900 54925 54930 54939 54946 54968 [...] (24 flits)
Measured flits: 138208 138244 (2 flits)
Class 0:
Remaining flits: 54773 54840 54861 54893 54900 54925 54930 54939 54946 54968 [...] (24 flits)
Measured flits: 138208 138244 (2 flits)
Class 0:
Remaining flits: 54773 54840 54861 54893 54900 54925 54930 54939 54946 54968 [...] (24 flits)
Measured flits: 138208 138244 (2 flits)
Class 0:
Remaining flits: 54773 54840 54861 54893 54900 54925 54930 54939 54946 54968 [...] (24 flits)
Measured flits: 138208 138244 (2 flits)
Class 0:
Remaining flits: 54773 54840 54861 54893 54900 54925 54930 54939 54946 54968 [...] (24 flits)
Measured flits: 138208 138244 (2 flits)
Class 0:
Remaining flits: 54773 54840 54861 54893 54900 54925 54930 54939 54946 54968 [...] (24 flits)
Measured flits: 138208 138244 (2 flits)
Class 0:
Remaining flits: 54773 54840 54861 54893 54900 54925 54930 54939 54946 54968 [...] (24 flits)
Measured flits: 138208 138244 (2 flits)
Class 0:
Remaining flits: 54773 54840 54861 54893 54900 54925 54930 54939 54946 54968 [...] (24 flits)
Measured flits: 138208 138244 (2 flits)
Class 0:
Remaining flits: 54773 54840 54861 54893 54900 54925 54930 54939 54946 54968 [...] (24 flits)
Measured flits: 138208 138244 (2 flits)
Class 0:
Remaining flits: 54773 54840 54861 54893 54900 54925 54930 54939 54946 54968 [...] (24 flits)
Measured flits: 138208 138244 (2 flits)
Class 0:
Remaining flits: 54773 54840 54861 54893 54900 54925 54930 54939 54946 54968 [...] (24 flits)
Measured flits: 138208 138244 (2 flits)
Class 0:
Remaining flits: 54773 54840 54861 54893 54900 54925 54930 54939 54946 54968 [...] (24 flits)
Measured flits: 138208 138244 (2 flits)
Class 0:
Remaining flits: 54773 54840 54861 54893 54900 54925 54930 54939 54946 54968 [...] (24 flits)
Measured flits: 138208 138244 (2 flits)
Class 0:
Remaining flits: 54773 54840 54861 54893 54900 54925 54930 54939 54946 54968 [...] (24 flits)
Measured flits: 138208 138244 (2 flits)
Class 0:
Remaining flits: 54773 54840 54861 54893 54900 54925 54930 54939 54946 54968 [...] (24 flits)
Measured flits: 138208 138244 (2 flits)
Class 0:
Remaining flits: 54773 54840 54861 54893 54900 54925 54930 54939 54946 54968 [...] (24 flits)
Measured flits: 138208 138244 (2 flits)
Class 0:
Remaining flits: 54773 54840 54861 54893 54900 54925 54930 54939 54946 54968 [...] (24 flits)
Measured flits: 138208 138244 (2 flits)
Class 0:
Remaining flits: 54773 54840 54861 54893 54900 54925 54930 54939 54946 54968 [...] (24 flits)
Measured flits: 138208 138244 (2 flits)
Class 0:
Remaining flits: 54773 54840 54861 54893 54900 54925 54930 54939 54946 54968 [...] (24 flits)
Measured flits: 138208 138244 (2 flits)
Class 0:
Remaining flits: 54773 54840 54861 54893 54900 54925 54930 54939 54946 54968 [...] (24 flits)
Measured flits: 138208 138244 (2 flits)
Class 0:
Remaining flits: 54773 54840 54861 54893 54900 54925 54930 54939 54946 54968 [...] (24 flits)
Measured flits: 138208 138244 (2 flits)
Class 0:
Remaining flits: 54773 54840 54861 54893 54900 54925 54930 54939 54946 54968 [...] (24 flits)
Measured flits: 138208 138244 (2 flits)
Class 0:
Remaining flits: 54773 54840 54861 54893 54900 54925 54930 54939 54946 54968 [...] (24 flits)
Measured flits: 138208 138244 (2 flits)
Class 0:
Remaining flits: 54773 54840 54861 54893 54900 54925 54930 54939 54946 54968 [...] (24 flits)
Measured flits: 138208 138244 (2 flits)
Class 0:
Remaining flits: 54773 54840 54861 54893 54900 54925 54930 54939 54946 54968 [...] (24 flits)
Measured flits: 138208 138244 (2 flits)
Class 0:
Remaining flits: 54773 54840 54861 54893 54900 54925 54930 54939 54946 54968 [...] (24 flits)
Measured flits: 138208 138244 (2 flits)
Class 0:
Remaining flits: 54773 54840 54861 54893 54900 54925 54930 54939 54946 54968 [...] (24 flits)
Measured flits: 138208 138244 (2 flits)
Class 0:
Remaining flits: 54773 54840 54861 54893 54900 54925 54930 54939 54946 54968 [...] (24 flits)
Measured flits: 138208 138244 (2 flits)
Class 0:
Remaining flits: 54773 54840 54861 54893 54900 54925 54930 54939 54946 54968 [...] (24 flits)
Measured flits: 138208 138244 (2 flits)
Class 0:
Remaining flits: 54773 54840 54861 54893 54900 54925 54930 54939 54946 54968 [...] (24 flits)
Measured flits: 138208 138244 (2 flits)
Class 0:
Remaining flits: 54773 54840 54861 54893 54900 54925 54930 54939 54946 54968 [...] (24 flits)
Measured flits: 138208 138244 (2 flits)
Time taken is 61000 cycles
====== Traffic class 0 ======

Total number of flits generated = 138260, changed lanes = 131894
Overall minimum packet latency = 7 (1 samples)
Overall average packet latency = 28.744 (1 samples)
Overall maximum packet latency = 156 (1 samples)
Overall minimum network latency = 8 (1 samples)
Overall average network latency = 29.744 (1 samples)
Overall maximum network latency = 157 (1 samples)
Overall minimum flit latency = 8 (1 samples)
Overall average flit latency = 29.7486 (1 samples)
Overall maximum flit latency = 157 (1 samples)
Overall minimum fragmentation = 0 (1 samples)
Overall average fragmentation = 0 (1 samples)
Overall maximum fragmentation = 0 (1 samples)
Overall minimum injected packet rate = 0 (1 samples)
Overall average injected packet rate = 0.14084 (1 samples)
Overall maximum injected packet rate = 0.154967 (1 samples)
Overall minimum accepted packet rate = 0.138567 (1 samples)
Overall average accepted packet rate = 0.140863 (1 samples)
Overall maximum accepted packet rate = 0.1434 (1 samples)
Overall minimum injected flit rate = 0 (1 samples)
Overall average injected flit rate = 0.14084 (1 samples)
Overall maximum injected flit rate = 0.154967 (1 samples)
Overall minimum accepted flit rate = 0.138567 (1 samples)
Overall average accepted flit rate = 0.140863 (1 samples)
Overall maximum accepted flit rate = 0.1434 (1 samples)
Overall average injected packet size = 1 (1 samples)
Overall average accepted packet size = 1 (1 samples)
Overall average hops = 3.49758 (1 samples)
Overall throughput of the network (flits/cycle) = 4.60787
Overall throughput of the network (packets/cycle) = 4.60787
Total run time 20418.2
