make: Nothing to be done for `all'.
Master: Running timer....
Master: Running SRC....
BEGIN Configuration File: ./examples/bitrev
// Topology

topology = mesh;
k = 4;
n = 2;

// Routing
routing_function = dor;

// Flow control
num_vcs     = 4;
vc_buf_size = 4;
wait_for_tail_credit = 0;

// Router architecture
vc_allocator = islip;
sw_allocator = islip;
alloc_iters  = 1;

credit_delay   = 1;
routing_delay  = 1;
vc_alloc_delay = 1;
sw_alloc_delay = 1;

input_speedup     = 1;
output_speedup    = 1;
internal_speedup  = 1.0;

vc_busy_when_full = 0;

// Traffic
traffic = uniform;
packet_size = 1;

// Simulation
sim_type = throughput;

injection_rate = 0.37;

END Configuration File: ./examples/bitrev
===== Time: 1000 =====
Class 0:
Minimum packet latency = 7
Average packet latency = 54.3791
Maximum packet latency = 199
Minimum network latency = 8
Average network latency = 53.472
Maximum network latency = 185
Slowest packet = 3078
Minimum flit latency = 8
Average flit latency = 53.472
Maximum flit latency = 185
Slowest flit = 4207
Minimum fragmentation = 0
Average fragmentation = 0
Maximum fragmentation = 0
Minimum injected packet rate = 0.344 (at node 6)
Average injected packet rate = 0.36525
Maximum injected packet rate = 0.384 (at node 5)
Minimum accepted packet rate = 0.309 (at node 14)
Average accepted packet rate = 0.339938
Maximum accepted packet rate = 0.363 (at node 8)
Minimum injected flit rate = 0.344 (at node 6)
Average injected flit rate = 0.36525
Maximum injected flit rate = 0.384 (at node 5)
Minimum accepted flit rate = 0.309 (at node 14)
Average accepted flit rate = 0.339938
Maximum accepted flit rate = 0.363 (at node 8)
Total number of injected packets = 5844
Total number of injected flits = 5844
Average injected packet length = 1
Total number of accepted packets = 5439
Total number of accepted flits = 5439
Average accepted packet length = 1
Total in-flight flits = 408 (0 measured)
===== Time: 2000 =====
Class 0:
Minimum packet latency = 7
Average packet latency = 66.2288
Maximum packet latency = 219
Minimum network latency = 8
Average network latency = 60.265
Maximum network latency = 188
Slowest packet = 3078
Minimum flit latency = 8
Average flit latency = 60.265
Maximum flit latency = 188
Slowest flit = 5594
Minimum fragmentation = 0
Average fragmentation = 0
Maximum fragmentation = 0
Minimum injected packet rate = 0.3515 (at node 6)
Average injected packet rate = 0.363563
Maximum injected packet rate = 0.3765 (at node 7)
Minimum accepted packet rate = 0.32 (at node 4)
Average accepted packet rate = 0.352687
Maximum accepted packet rate = 0.376 (at node 7)
Minimum injected flit rate = 0.3515 (at node 6)
Average injected flit rate = 0.363563
Maximum injected flit rate = 0.3765 (at node 7)
Minimum accepted flit rate = 0.32 (at node 4)
Average accepted flit rate = 0.352687
Maximum accepted flit rate = 0.376 (at node 7)
Total number of injected packets = 11634
Total number of injected flits = 11634
Average injected packet length = 1
Total number of accepted packets = 11286
Total number of accepted flits = 11286
Average accepted packet length = 1
Total in-flight flits = 351 (0 measured)
===== Time: 3000 =====
Class 0:
Minimum packet latency = 7
Average packet latency = 84.2941
Maximum packet latency = 331
Minimum network latency = 8
Average network latency = 71.1613
Maximum network latency = 246
Slowest packet = 13700
Minimum flit latency = 8
Average flit latency = 71.1613
Maximum flit latency = 246
Slowest flit = 15571
Minimum fragmentation = 0
Average fragmentation = 0
Maximum fragmentation = 0
Minimum injected packet rate = 0.307 (at node 2)
Average injected packet rate = 0.363125
Maximum injected packet rate = 0.383 (at node 10)
Minimum accepted packet rate = 0.319 (at node 4)
Average accepted packet rate = 0.356375
Maximum accepted packet rate = 0.387 (at node 11)
Minimum injected flit rate = 0.307 (at node 2)
Average injected flit rate = 0.363125
Maximum injected flit rate = 0.383 (at node 10)
Minimum accepted flit rate = 0.319 (at node 4)
Average accepted flit rate = 0.356375
Maximum accepted flit rate = 0.387 (at node 11)
Total number of injected packets = 5810
Total number of injected flits = 5810
Average injected packet length = 1
Total number of accepted packets = 5702
Total number of accepted flits = 5702
Average accepted packet length = 1
Total in-flight flits = 463 (0 measured)
===== Time: 4000 =====
Class 0:
Minimum packet latency = 7
Average packet latency = 156.183
Maximum packet latency = 449
Minimum network latency = 8
Average network latency = 84.5772
Maximum network latency = 216
Slowest packet = 17452
Minimum flit latency = 8
Average flit latency = 85.58
Maximum flit latency = 216
Slowest flit = 18421
Minimum fragmentation = 0
Average fragmentation = 0
Maximum fragmentation = 0
Minimum injected packet rate = 0.299 (at node 6)
Average injected packet rate = 0.336125
Maximum injected packet rate = 0.369 (at node 7)
Minimum accepted packet rate = 0.314 (at node 13)
Average accepted packet rate = 0.33525
Maximum accepted packet rate = 0.357 (at node 5)
Minimum injected flit rate = 0.299 (at node 6)
Average injected flit rate = 0.336125
Maximum injected flit rate = 0.369 (at node 7)
Minimum accepted flit rate = 0.314 (at node 13)
Average accepted flit rate = 0.33525
Maximum accepted flit rate = 0.357 (at node 5)
Total number of injected packets = 5378
Total number of injected flits = 5378
Average injected packet length = 1
Total number of accepted packets = 5364
Total number of accepted flits = 5364
Average accepted packet length = 1
Total in-flight flits = 478 (478 measured)
===== Time: 5000 =====
Class 0:
Minimum packet latency = 7
Average packet latency = 205.822
Maximum packet latency = 566
Minimum network latency = 8
Average network latency = 89.4126
Maximum network latency = 252
Slowest packet = 17452
Minimum flit latency = 8
Average flit latency = 89.7066
Maximum flit latency = 252
Slowest flit = 22829
Minimum fragmentation = 0
Average fragmentation = 0
Maximum fragmentation = 0
Minimum injected packet rate = 0.2975 (at node 13)
Average injected packet rate = 0.334844
Maximum injected packet rate = 0.37 (at node 7)
Minimum accepted packet rate = 0.303 (at node 4)
Average accepted packet rate = 0.33375
Maximum accepted packet rate = 0.3465 (at node 10)
Minimum injected flit rate = 0.2975 (at node 13)
Average injected flit rate = 0.334844
Maximum injected flit rate = 0.37 (at node 7)
Minimum accepted flit rate = 0.303 (at node 4)
Average accepted flit rate = 0.33375
Maximum accepted flit rate = 0.3465 (at node 10)
Total number of injected packets = 10715
Total number of injected flits = 10715
Average injected packet length = 1
Total number of accepted packets = 10680
Total number of accepted flits = 10680
Average accepted packet length = 1
Total in-flight flits = 505 (505 measured)
===== Time: 6000 =====
Class 0:
Minimum packet latency = 7
Average packet latency = 245.613
Maximum packet latency = 679
Minimum network latency = 8
Average network latency = 89.3363
Maximum network latency = 252
Slowest packet = 17452
Minimum flit latency = 8
Average flit latency = 89.5322
Maximum flit latency = 252
Slowest flit = 22829
Minimum fragmentation = 0
Average fragmentation = 0
Maximum fragmentation = 0
Minimum injected packet rate = 0.301667 (at node 6)
Average injected packet rate = 0.338083
Maximum injected packet rate = 0.371667 (at node 7)
Minimum accepted packet rate = 0.308667 (at node 4)
Average accepted packet rate = 0.337646
Maximum accepted packet rate = 0.35 (at node 10)
Minimum injected flit rate = 0.301667 (at node 6)
Average injected flit rate = 0.338083
Maximum injected flit rate = 0.371667 (at node 7)
Minimum accepted flit rate = 0.308667 (at node 4)
Average accepted flit rate = 0.337646
Maximum accepted flit rate = 0.35 (at node 10)
Total number of injected packets = 16228
Total number of injected flits = 16228
Average injected packet length = 1
Total number of accepted packets = 16207
Total number of accepted flits = 16207
Average accepted packet length = 1
Total in-flight flits = 482 (482 measured)
===== Time: 7000 =====
Class 0:
Minimum packet latency = 7
Average packet latency = 282.628
Maximum packet latency = 875
Minimum network latency = 8
Average network latency = 88.8494
Maximum network latency = 252
Slowest packet = 17452
Minimum flit latency = 8
Average flit latency = 89.0059
Maximum flit latency = 252
Slowest flit = 22829
Minimum fragmentation = 0
Average fragmentation = 0
Maximum fragmentation = 0
Minimum injected packet rate = 0.31075 (at node 6)
Average injected packet rate = 0.339375
Maximum injected packet rate = 0.37 (at node 7)
Minimum accepted packet rate = 0.321 (at node 4)
Average accepted packet rate = 0.339438
Maximum accepted packet rate = 0.352 (at node 7)
Minimum injected flit rate = 0.31075 (at node 6)
Average injected flit rate = 0.339375
Maximum injected flit rate = 0.37 (at node 7)
Minimum accepted flit rate = 0.321 (at node 4)
Average accepted flit rate = 0.339438
Maximum accepted flit rate = 0.352 (at node 7)
Total number of injected packets = 21720
Total number of injected flits = 21720
Average injected packet length = 1
Total number of accepted packets = 21724
Total number of accepted flits = 21724
Average accepted packet length = 1
Total in-flight flits = 464 (464 measured)
Draining remaining packets ...
Class 0:
Remaining flits: 36965 37011 37093 37108 37153 37158 37164 37181 37196 37218 [...] (414 flits)
Measured flits: 36965 37011 37093 37108 37153 37158 37164 37181 37196 37218 [...] (414 flits)
Class 0:
Remaining flits: 36965 37011 37093 37108 37153 37158 37164 37181 37196 37218 [...] (356 flits)
Measured flits: 36965 37011 37093 37108 37153 37158 37164 37181 37196 37218 [...] (356 flits)
Class 0:
Remaining flits: 36965 37011 37093 37108 37153 37158 37164 37181 37196 37218 [...] (307 flits)
Measured flits: 36965 37011 37093 37108 37153 37158 37164 37181 37196 37218 [...] (307 flits)
Class 0:
Remaining flits: 36965 37011 37093 37108 37153 37158 37164 37181 37196 37218 [...] (259 flits)
Measured flits: 36965 37011 37093 37108 37153 37158 37164 37181 37196 37218 [...] (259 flits)
Class 0:
Remaining flits: 36965 37011 37093 37108 37153 37158 37164 37181 37196 37218 [...] (209 flits)
Measured flits: 36965 37011 37093 37108 37153 37158 37164 37181 37196 37218 [...] (209 flits)
Class 0:
Remaining flits: 36965 37011 37093 37108 37153 37158 37164 37181 37196 37218 [...] (164 flits)
Measured flits: 36965 37011 37093 37108 37153 37158 37164 37181 37196 37218 [...] (164 flits)
Class 0:
Remaining flits: 36965 37011 37093 37108 37153 37158 37164 37181 37196 37218 [...] (126 flits)
Measured flits: 36965 37011 37093 37108 37153 37158 37164 37181 37196 37218 [...] (126 flits)
Class 0:
Remaining flits: 36965 37011 37093 37108 37153 37158 37164 37181 37196 37218 [...] (93 flits)
Measured flits: 36965 37011 37093 37108 37153 37158 37164 37181 37196 37218 [...] (93 flits)
Class 0:
Remaining flits: 36965 37011 37093 37108 37153 37158 37164 37181 37196 37218 [...] (72 flits)
Measured flits: 36965 37011 37093 37108 37153 37158 37164 37181 37196 37218 [...] (72 flits)
Class 0:
Remaining flits: 36965 37011 37093 37108 37153 37158 37164 37181 37196 37218 [...] (48 flits)
Measured flits: 36965 37011 37093 37108 37153 37158 37164 37181 37196 37218 [...] (48 flits)
Class 0:
Remaining flits: 36965 37011 37093 37108 37153 37158 37164 37181 37196 37218 [...] (35 flits)
Measured flits: 36965 37011 37093 37108 37153 37158 37164 37181 37196 37218 [...] (35 flits)
Class 0:
Remaining flits: 36965 37011 37093 37108 37153 37158 37164 37181 37196 37218 [...] (30 flits)
Measured flits: 36965 37011 37093 37108 37153 37158 37164 37181 37196 37218 [...] (30 flits)
Class 0:
Remaining flits: 36965 37011 37093 37108 37153 37158 37164 37181 37196 37218 [...] (28 flits)
Measured flits: 36965 37011 37093 37108 37153 37158 37164 37181 37196 37218 [...] (28 flits)
Class 0:
Remaining flits: 36965 37011 37093 37108 37153 37158 37164 37181 37196 37218 [...] (28 flits)
Measured flits: 36965 37011 37093 37108 37153 37158 37164 37181 37196 37218 [...] (28 flits)
Class 0:
Remaining flits: 36965 37011 37093 37108 37153 37158 37164 37181 37196 37218 [...] (28 flits)
Measured flits: 36965 37011 37093 37108 37153 37158 37164 37181 37196 37218 [...] (28 flits)
Class 0:
Remaining flits: 36965 37011 37093 37108 37153 37158 37164 37181 37196 37218 [...] (28 flits)
Measured flits: 36965 37011 37093 37108 37153 37158 37164 37181 37196 37218 [...] (28 flits)
Class 0:
Remaining flits: 36965 37011 37093 37108 37153 37158 37164 37181 37196 37218 [...] (28 flits)
Measured flits: 36965 37011 37093 37108 37153 37158 37164 37181 37196 37218 [...] (28 flits)
Class 0:
Remaining flits: 36965 37011 37093 37108 37153 37158 37164 37181 37196 37218 [...] (28 flits)
Measured flits: 36965 37011 37093 37108 37153 37158 37164 37181 37196 37218 [...] (28 flits)
Class 0:
Remaining flits: 36965 37011 37093 37108 37153 37158 37164 37181 37196 37218 [...] (28 flits)
Measured flits: 36965 37011 37093 37108 37153 37158 37164 37181 37196 37218 [...] (28 flits)
Class 0:
Remaining flits: 36965 37011 37093 37108 37153 37158 37164 37181 37196 37218 [...] (28 flits)
Measured flits: 36965 37011 37093 37108 37153 37158 37164 37181 37196 37218 [...] (28 flits)
Class 0:
Remaining flits: 36965 37011 37093 37108 37153 37158 37164 37181 37196 37218 [...] (28 flits)
Measured flits: 36965 37011 37093 37108 37153 37158 37164 37181 37196 37218 [...] (28 flits)
Class 0:
Remaining flits: 36965 37011 37093 37108 37153 37158 37164 37181 37196 37218 [...] (28 flits)
Measured flits: 36965 37011 37093 37108 37153 37158 37164 37181 37196 37218 [...] (28 flits)
Class 0:
Remaining flits: 36965 37011 37093 37108 37153 37158 37164 37181 37196 37218 [...] (28 flits)
Measured flits: 36965 37011 37093 37108 37153 37158 37164 37181 37196 37218 [...] (28 flits)
Class 0:
Remaining flits: 36965 37011 37093 37108 37153 37158 37164 37181 37196 37218 [...] (28 flits)
Measured flits: 36965 37011 37093 37108 37153 37158 37164 37181 37196 37218 [...] (28 flits)
Class 0:
Remaining flits: 36965 37011 37093 37108 37153 37158 37164 37181 37196 37218 [...] (28 flits)
Measured flits: 36965 37011 37093 37108 37153 37158 37164 37181 37196 37218 [...] (28 flits)
Class 0:
Remaining flits: 36965 37011 37093 37108 37153 37158 37164 37181 37196 37218 [...] (28 flits)
Measured flits: 36965 37011 37093 37108 37153 37158 37164 37181 37196 37218 [...] (28 flits)
Class 0:
Remaining flits: 36965 37011 37093 37108 37153 37158 37164 37181 37196 37218 [...] (28 flits)
Measured flits: 36965 37011 37093 37108 37153 37158 37164 37181 37196 37218 [...] (28 flits)
Class 0:
Remaining flits: 36965 37011 37093 37108 37153 37158 37164 37181 37196 37218 [...] (28 flits)
Measured flits: 36965 37011 37093 37108 37153 37158 37164 37181 37196 37218 [...] (28 flits)
Class 0:
Remaining flits: 36965 37011 37093 37108 37153 37158 37164 37181 37196 37218 [...] (28 flits)
Measured flits: 36965 37011 37093 37108 37153 37158 37164 37181 37196 37218 [...] (28 flits)
Class 0:
Remaining flits: 36965 37011 37093 37108 37153 37158 37164 37181 37196 37218 [...] (28 flits)
Measured flits: 36965 37011 37093 37108 37153 37158 37164 37181 37196 37218 [...] (28 flits)
Class 0:
Remaining flits: 36965 37011 37093 37108 37153 37158 37164 37181 37196 37218 [...] (28 flits)
Measured flits: 36965 37011 37093 37108 37153 37158 37164 37181 37196 37218 [...] (28 flits)
Class 0:
Remaining flits: 36965 37011 37093 37108 37153 37158 37164 37181 37196 37218 [...] (28 flits)
Measured flits: 36965 37011 37093 37108 37153 37158 37164 37181 37196 37218 [...] (28 flits)
Class 0:
Remaining flits: 36965 37011 37093 37108 37153 37158 37164 37181 37196 37218 [...] (28 flits)
Measured flits: 36965 37011 37093 37108 37153 37158 37164 37181 37196 37218 [...] (28 flits)
Class 0:
Remaining flits: 36965 37011 37093 37108 37153 37158 37164 37181 37196 37218 [...] (28 flits)
Measured flits: 36965 37011 37093 37108 37153 37158 37164 37181 37196 37218 [...] (28 flits)
Class 0:
Remaining flits: 36965 37011 37093 37108 37153 37158 37164 37181 37196 37218 [...] (28 flits)
Measured flits: 36965 37011 37093 37108 37153 37158 37164 37181 37196 37218 [...] (28 flits)
Class 0:
Remaining flits: 36965 37011 37093 37108 37153 37158 37164 37181 37196 37218 [...] (28 flits)
Measured flits: 36965 37011 37093 37108 37153 37158 37164 37181 37196 37218 [...] (28 flits)
Class 0:
Remaining flits: 36965 37011 37093 37108 37153 37158 37164 37181 37196 37218 [...] (28 flits)
Measured flits: 36965 37011 37093 37108 37153 37158 37164 37181 37196 37218 [...] (28 flits)
Class 0:
Remaining flits: 36965 37011 37093 37108 37153 37158 37164 37181 37196 37218 [...] (28 flits)
Measured flits: 36965 37011 37093 37108 37153 37158 37164 37181 37196 37218 [...] (28 flits)
Class 0:
Remaining flits: 36965 37011 37093 37108 37153 37158 37164 37181 37196 37218 [...] (28 flits)
Measured flits: 36965 37011 37093 37108 37153 37158 37164 37181 37196 37218 [...] (28 flits)
Class 0:
Remaining flits: 36965 37011 37093 37108 37153 37158 37164 37181 37196 37218 [...] (28 flits)
Measured flits: 36965 37011 37093 37108 37153 37158 37164 37181 37196 37218 [...] (28 flits)
Class 0:
Remaining flits: 36965 37011 37093 37108 37153 37158 37164 37181 37196 37218 [...] (28 flits)
Measured flits: 36965 37011 37093 37108 37153 37158 37164 37181 37196 37218 [...] (28 flits)
Class 0:
Remaining flits: 36965 37011 37093 37108 37153 37158 37164 37181 37196 37218 [...] (28 flits)
Measured flits: 36965 37011 37093 37108 37153 37158 37164 37181 37196 37218 [...] (28 flits)
Class 0:
Remaining flits: 36965 37011 37093 37108 37153 37158 37164 37181 37196 37218 [...] (28 flits)
Measured flits: 36965 37011 37093 37108 37153 37158 37164 37181 37196 37218 [...] (28 flits)
Class 0:
Remaining flits: 36965 37011 37093 37108 37153 37158 37164 37181 37196 37218 [...] (28 flits)
Measured flits: 36965 37011 37093 37108 37153 37158 37164 37181 37196 37218 [...] (28 flits)
Class 0:
Remaining flits: 36965 37011 37093 37108 37153 37158 37164 37181 37196 37218 [...] (28 flits)
Measured flits: 36965 37011 37093 37108 37153 37158 37164 37181 37196 37218 [...] (28 flits)
Class 0:
Remaining flits: 36965 37011 37093 37108 37153 37158 37164 37181 37196 37218 [...] (28 flits)
Measured flits: 36965 37011 37093 37108 37153 37158 37164 37181 37196 37218 [...] (28 flits)
Class 0:
Remaining flits: 36965 37011 37093 37108 37153 37158 37164 37181 37196 37218 [...] (28 flits)
Measured flits: 36965 37011 37093 37108 37153 37158 37164 37181 37196 37218 [...] (28 flits)
Class 0:
Remaining flits: 36965 37011 37093 37108 37153 37158 37164 37181 37196 37218 [...] (28 flits)
Measured flits: 36965 37011 37093 37108 37153 37158 37164 37181 37196 37218 [...] (28 flits)
Class 0:
Remaining flits: 36965 37011 37093 37108 37153 37158 37164 37181 37196 37218 [...] (28 flits)
Measured flits: 36965 37011 37093 37108 37153 37158 37164 37181 37196 37218 [...] (28 flits)
Class 0:
Remaining flits: 36965 37011 37093 37108 37153 37158 37164 37181 37196 37218 [...] (28 flits)
Measured flits: 36965 37011 37093 37108 37153 37158 37164 37181 37196 37218 [...] (28 flits)
Class 0:
Remaining flits: 36965 37011 37093 37108 37153 37158 37164 37181 37196 37218 [...] (28 flits)
Measured flits: 36965 37011 37093 37108 37153 37158 37164 37181 37196 37218 [...] (28 flits)
Class 0:
Remaining flits: 36965 37011 37093 37108 37153 37158 37164 37181 37196 37218 [...] (28 flits)
Measured flits: 36965 37011 37093 37108 37153 37158 37164 37181 37196 37218 [...] (28 flits)
Class 0:
Remaining flits: 36965 37011 37093 37108 37153 37158 37164 37181 37196 37218 [...] (28 flits)
Measured flits: 36965 37011 37093 37108 37153 37158 37164 37181 37196 37218 [...] (28 flits)
Class 0:
Remaining flits: 36965 37011 37093 37108 37153 37158 37164 37181 37196 37218 [...] (28 flits)
Measured flits: 36965 37011 37093 37108 37153 37158 37164 37181 37196 37218 [...] (28 flits)
Class 0:
Remaining flits: 36965 37011 37093 37108 37153 37158 37164 37181 37196 37218 [...] (28 flits)
Measured flits: 36965 37011 37093 37108 37153 37158 37164 37181 37196 37218 [...] (28 flits)
Class 0:
Remaining flits: 36965 37011 37093 37108 37153 37158 37164 37181 37196 37218 [...] (28 flits)
Measured flits: 36965 37011 37093 37108 37153 37158 37164 37181 37196 37218 [...] (28 flits)
Class 0:
Remaining flits: 36965 37011 37093 37108 37153 37158 37164 37181 37196 37218 [...] (28 flits)
Measured flits: 36965 37011 37093 37108 37153 37158 37164 37181 37196 37218 [...] (28 flits)
Class 0:
Remaining flits: 36965 37011 37093 37108 37153 37158 37164 37181 37196 37218 [...] (28 flits)
Measured flits: 36965 37011 37093 37108 37153 37158 37164 37181 37196 37218 [...] (28 flits)
Class 0:
Remaining flits: 36965 37011 37093 37108 37153 37158 37164 37181 37196 37218 [...] (28 flits)
Measured flits: 36965 37011 37093 37108 37153 37158 37164 37181 37196 37218 [...] (28 flits)
Class 0:
Remaining flits: 36965 37011 37093 37108 37153 37158 37164 37181 37196 37218 [...] (28 flits)
Measured flits: 36965 37011 37093 37108 37153 37158 37164 37181 37196 37218 [...] (28 flits)
Class 0:
Remaining flits: 36965 37011 37093 37108 37153 37158 37164 37181 37196 37218 [...] (28 flits)
Measured flits: 36965 37011 37093 37108 37153 37158 37164 37181 37196 37218 [...] (28 flits)
Class 0:
Remaining flits: 36965 37011 37093 37108 37153 37158 37164 37181 37196 37218 [...] (28 flits)
Measured flits: 36965 37011 37093 37108 37153 37158 37164 37181 37196 37218 [...] (28 flits)
Class 0:
Remaining flits: 36965 37011 37093 37108 37153 37158 37164 37181 37196 37218 [...] (28 flits)
Measured flits: 36965 37011 37093 37108 37153 37158 37164 37181 37196 37218 [...] (28 flits)
Class 0:
Remaining flits: 36965 37011 37093 37108 37153 37158 37164 37181 37196 37218 [...] (28 flits)
Measured flits: 36965 37011 37093 37108 37153 37158 37164 37181 37196 37218 [...] (28 flits)
Class 0:
Remaining flits: 36965 37011 37093 37108 37153 37158 37164 37181 37196 37218 [...] (28 flits)
Measured flits: 36965 37011 37093 37108 37153 37158 37164 37181 37196 37218 [...] (28 flits)
Class 0:
Remaining flits: 36965 37011 37093 37108 37153 37158 37164 37181 37196 37218 [...] (28 flits)
Measured flits: 36965 37011 37093 37108 37153 37158 37164 37181 37196 37218 [...] (28 flits)
Class 0:
Remaining flits: 36965 37011 37093 37108 37153 37158 37164 37181 37196 37218 [...] (28 flits)
Measured flits: 36965 37011 37093 37108 37153 37158 37164 37181 37196 37218 [...] (28 flits)
Class 0:
Remaining flits: 36965 37011 37093 37108 37153 37158 37164 37181 37196 37218 [...] (28 flits)
Measured flits: 36965 37011 37093 37108 37153 37158 37164 37181 37196 37218 [...] (28 flits)
Class 0:
Remaining flits: 36965 37011 37093 37108 37153 37158 37164 37181 37196 37218 [...] (28 flits)
Measured flits: 36965 37011 37093 37108 37153 37158 37164 37181 37196 37218 [...] (28 flits)
Class 0:
Remaining flits: 36965 37011 37093 37108 37153 37158 37164 37181 37196 37218 [...] (28 flits)
Measured flits: 36965 37011 37093 37108 37153 37158 37164 37181 37196 37218 [...] (28 flits)
Class 0:
Remaining flits: 36965 37011 37093 37108 37153 37158 37164 37181 37196 37218 [...] (28 flits)
Measured flits: 36965 37011 37093 37108 37153 37158 37164 37181 37196 37218 [...] (28 flits)
Class 0:
Remaining flits: 36965 37011 37093 37108 37153 37158 37164 37181 37196 37218 [...] (28 flits)
Measured flits: 36965 37011 37093 37108 37153 37158 37164 37181 37196 37218 [...] (28 flits)
Class 0:
Remaining flits: 36965 37011 37093 37108 37153 37158 37164 37181 37196 37218 [...] (28 flits)
Measured flits: 36965 37011 37093 37108 37153 37158 37164 37181 37196 37218 [...] (28 flits)
Class 0:
Remaining flits: 36965 37011 37093 37108 37153 37158 37164 37181 37196 37218 [...] (28 flits)
Measured flits: 36965 37011 37093 37108 37153 37158 37164 37181 37196 37218 [...] (28 flits)
Class 0:
Remaining flits: 36965 37011 37093 37108 37153 37158 37164 37181 37196 37218 [...] (28 flits)
Measured flits: 36965 37011 37093 37108 37153 37158 37164 37181 37196 37218 [...] (28 flits)
Class 0:
Remaining flits: 36965 37011 37093 37108 37153 37158 37164 37181 37196 37218 [...] (28 flits)
Measured flits: 36965 37011 37093 37108 37153 37158 37164 37181 37196 37218 [...] (28 flits)
Class 0:
Remaining flits: 36965 37011 37093 37108 37153 37158 37164 37181 37196 37218 [...] (28 flits)
Measured flits: 36965 37011 37093 37108 37153 37158 37164 37181 37196 37218 [...] (28 flits)
Class 0:
Remaining flits: 36965 37011 37093 37108 37153 37158 37164 37181 37196 37218 [...] (28 flits)
Measured flits: 36965 37011 37093 37108 37153 37158 37164 37181 37196 37218 [...] (28 flits)
Class 0:
Remaining flits: 36965 37011 37093 37108 37153 37158 37164 37181 37196 37218 [...] (28 flits)
Measured flits: 36965 37011 37093 37108 37153 37158 37164 37181 37196 37218 [...] (28 flits)
Class 0:
Remaining flits: 36965 37011 37093 37108 37153 37158 37164 37181 37196 37218 [...] (28 flits)
Measured flits: 36965 37011 37093 37108 37153 37158 37164 37181 37196 37218 [...] (28 flits)
Class 0:
Remaining flits: 36965 37011 37093 37108 37153 37158 37164 37181 37196 37218 [...] (28 flits)
Measured flits: 36965 37011 37093 37108 37153 37158 37164 37181 37196 37218 [...] (28 flits)
Class 0:
Remaining flits: 36965 37011 37093 37108 37153 37158 37164 37181 37196 37218 [...] (28 flits)
Measured flits: 36965 37011 37093 37108 37153 37158 37164 37181 37196 37218 [...] (28 flits)
Class 0:
Remaining flits: 36965 37011 37093 37108 37153 37158 37164 37181 37196 37218 [...] (28 flits)
Measured flits: 36965 37011 37093 37108 37153 37158 37164 37181 37196 37218 [...] (28 flits)
Class 0:
Remaining flits: 36965 37011 37093 37108 37153 37158 37164 37181 37196 37218 [...] (28 flits)
Measured flits: 36965 37011 37093 37108 37153 37158 37164 37181 37196 37218 [...] (28 flits)
Class 0:
Remaining flits: 36965 37011 37093 37108 37153 37158 37164 37181 37196 37218 [...] (28 flits)
Measured flits: 36965 37011 37093 37108 37153 37158 37164 37181 37196 37218 [...] (28 flits)
Class 0:
Remaining flits: 36965 37011 37093 37108 37153 37158 37164 37181 37196 37218 [...] (28 flits)
Measured flits: 36965 37011 37093 37108 37153 37158 37164 37181 37196 37218 [...] (28 flits)
Class 0:
Remaining flits: 36965 37011 37093 37108 37153 37158 37164 37181 37196 37218 [...] (28 flits)
Measured flits: 36965 37011 37093 37108 37153 37158 37164 37181 37196 37218 [...] (28 flits)
Class 0:
Remaining flits: 36965 37011 37093 37108 37153 37158 37164 37181 37196 37218 [...] (28 flits)
Measured flits: 36965 37011 37093 37108 37153 37158 37164 37181 37196 37218 [...] (28 flits)
Class 0:
Remaining flits: 36965 37011 37093 37108 37153 37158 37164 37181 37196 37218 [...] (28 flits)
Measured flits: 36965 37011 37093 37108 37153 37158 37164 37181 37196 37218 [...] (28 flits)
Class 0:
Remaining flits: 36965 37011 37093 37108 37153 37158 37164 37181 37196 37218 [...] (28 flits)
Measured flits: 36965 37011 37093 37108 37153 37158 37164 37181 37196 37218 [...] (28 flits)
Class 0:
Remaining flits: 36965 37011 37093 37108 37153 37158 37164 37181 37196 37218 [...] (28 flits)
Measured flits: 36965 37011 37093 37108 37153 37158 37164 37181 37196 37218 [...] (28 flits)
Class 0:
Remaining flits: 36965 37011 37093 37108 37153 37158 37164 37181 37196 37218 [...] (28 flits)
Measured flits: 36965 37011 37093 37108 37153 37158 37164 37181 37196 37218 [...] (28 flits)
Class 0:
Remaining flits: 36965 37011 37093 37108 37153 37158 37164 37181 37196 37218 [...] (28 flits)
Measured flits: 36965 37011 37093 37108 37153 37158 37164 37181 37196 37218 [...] (28 flits)
Class 0:
Remaining flits: 36965 37011 37093 37108 37153 37158 37164 37181 37196 37218 [...] (28 flits)
Measured flits: 36965 37011 37093 37108 37153 37158 37164 37181 37196 37218 [...] (28 flits)
Class 0:
Remaining flits: 36965 37011 37093 37108 37153 37158 37164 37181 37196 37218 [...] (28 flits)
Measured flits: 36965 37011 37093 37108 37153 37158 37164 37181 37196 37218 [...] (28 flits)
Class 0:
Remaining flits: 36965 37011 37093 37108 37153 37158 37164 37181 37196 37218 [...] (28 flits)
Measured flits: 36965 37011 37093 37108 37153 37158 37164 37181 37196 37218 [...] (28 flits)
Class 0:
Remaining flits: 36965 37011 37093 37108 37153 37158 37164 37181 37196 37218 [...] (28 flits)
Measured flits: 36965 37011 37093 37108 37153 37158 37164 37181 37196 37218 [...] (28 flits)
Class 0:
Remaining flits: 36965 37011 37093 37108 37153 37158 37164 37181 37196 37218 [...] (28 flits)
Measured flits: 36965 37011 37093 37108 37153 37158 37164 37181 37196 37218 [...] (28 flits)
Class 0:
Remaining flits: 36965 37011 37093 37108 37153 37158 37164 37181 37196 37218 [...] (28 flits)
Measured flits: 36965 37011 37093 37108 37153 37158 37164 37181 37196 37218 [...] (28 flits)
Class 0:
Remaining flits: 36965 37011 37093 37108 37153 37158 37164 37181 37196 37218 [...] (28 flits)
Measured flits: 36965 37011 37093 37108 37153 37158 37164 37181 37196 37218 [...] (28 flits)
Class 0:
Remaining flits: 36965 37011 37093 37108 37153 37158 37164 37181 37196 37218 [...] (28 flits)
Measured flits: 36965 37011 37093 37108 37153 37158 37164 37181 37196 37218 [...] (28 flits)
Time taken is 8000 cycles
====== Traffic class 0 ======

Total number of flits generated = 39176, changed lanes = 38319
Overall minimum packet latency = 7 (1 samples)
Overall average packet latency = 285.28 (1 samples)
Overall maximum packet latency = 875 (1 samples)
Overall minimum network latency = 8 (1 samples)
Overall average network latency = 88.8159 (1 samples)
Overall maximum network latency = 252 (1 samples)
Overall minimum flit latency = 8 (1 samples)
Overall average flit latency = 88.97 (1 samples)
Overall maximum flit latency = 252 (1 samples)
Overall minimum fragmentation = 0 (1 samples)
Overall average fragmentation = 0 (1 samples)
Overall maximum fragmentation = 0 (1 samples)
Overall minimum injected packet rate = 0.31075 (1 samples)
Overall average injected packet rate = 0.339375 (1 samples)
Overall maximum injected packet rate = 0.37 (1 samples)
Overall minimum accepted packet rate = 0.321 (1 samples)
Overall average accepted packet rate = 0.339438 (1 samples)
Overall maximum accepted packet rate = 0.352 (1 samples)
Overall minimum injected flit rate = 0.31075 (1 samples)
Overall average injected flit rate = 0.339375 (1 samples)
Overall maximum injected flit rate = 0.37 (1 samples)
Overall minimum accepted flit rate = 0.321 (1 samples)
Overall average accepted flit rate = 0.339438 (1 samples)
Overall maximum accepted flit rate = 0.352 (1 samples)
Overall average injected packet size = 1 (1 samples)
Overall average accepted packet size = 1 (1 samples)
Overall average hops = 3.52496 (1 samples)
Overall throughput of the network (flits/cycle) = 9.787
Overall throughput of the network (packets/cycle) = 9.787
Total run time 14765.2
