g++ -Wall -I. -Iarbiters -Iallocators -Irouters -Inetworks -Ipower  -O3 -g -MMD -c booksim_config.cpp -o booksim_config.o
g++  outputset.o misc_utils.o routefunc.o workloadtrafficmanager.o buffer_state.o module.o flitchannel.o buffer.o main.o rng_double_wrapper.o stats.o steadystatetrafficmanager.o traffic.o batchtrafficmanager.o vc.o credit.o workload.o rng_wrapper.o synthetictrafficmanager.o injection.o config_utils.o flit.o trafficmanager.o random_utils.o booksim_config.o power/buffer_monitor.o power/switch_monitor.o power/power_module.o routers/socket_lib.o routers/router.o routers/iq_router.o arbiters/prio_arb.o arbiters/matrix_arb.o arbiters/tree_arb.o arbiters/roundrobin_arb.o arbiters/arbiter.o allocators/wavefront.o allocators/islip.o allocators/selalloc.o allocators/separable_output_first.o allocators/separable.o allocators/allocator.o allocators/pim.o allocators/separable_input_first.o allocators/loa.o allocators/maxsize.o networks/fattree.o networks/cmesh.o networks/flatfly_onchip.o networks/qtree.o networks/tree4.o networks/network.o networks/anynet.o networks/fly.o networks/dragonfly.o networks/kncube.o lex.yy.o y.tab.o netrace/netrace.o -o booksim
Master: Running timer....
Master: Running SRC....
BEGIN Configuration File: ./examples/bitrev
// Topology

topology = torus;
k = 4;
n = 2;

// Routing
routing_function = dim_order;

// Flow control
num_vcs     = 4;
vc_buf_size = 4;
wait_for_tail_credit = 0;

// Router architecture
vc_allocator = islip;
sw_allocator = islip;
alloc_iters  = 1;

credit_delay   = 1;
routing_delay  = 1;
vc_alloc_delay = 1;
sw_alloc_delay = 1;

input_speedup     = 1;
output_speedup    = 1;
internal_speedup  = 1.0;

vc_busy_when_full = 0;

// Traffic
traffic = transpose;
packet_size = 1;

// Simulation
sim_type = throughput;

injection_rate = 0.05;

END Configuration File: ./examples/bitrev
===== Time: 1000 =====
Class 0:
Minimum packet latency = 8
Average packet latency = 35.5767
Maximum packet latency = 97
Minimum network latency = 9
Average network latency = 36.5767
Maximum network latency = 98
Slowest packet = 231
Minimum flit latency = 9
Average flit latency = 36.5767
Maximum flit latency = 98
Slowest flit = 231
Minimum fragmentation = 0
Average fragmentation = 0
Maximum fragmentation = 0
Minimum injected packet rate = 0.041 (at node 5)
Average injected packet rate = 0.048875
Maximum injected packet rate = 0.054 (at node 1)
Minimum accepted packet rate = 0.038 (at node 2)
Average accepted packet rate = 0.04725
Maximum accepted packet rate = 0.053 (at node 4)
Minimum injected flit rate = 0.041 (at node 5)
Average injected flit rate = 0.048875
Maximum injected flit rate = 0.054 (at node 1)
Minimum accepted flit rate = 0.038 (at node 2)
Average accepted flit rate = 0.04725
Maximum accepted flit rate = 0.053 (at node 4)
Total number of injected packets = 782
Total number of injected flits = 782
Average injected packet length = 1
Total number of accepted packets = 756
Total number of accepted flits = 756
Average accepted packet length = 1
Total in-flight flits = 26 (0 measured)
===== Time: 2000 =====
Class 0:
Minimum packet latency = 8
Average packet latency = 35.8085
Maximum packet latency = 97
Minimum network latency = 9
Average network latency = 36.8085
Maximum network latency = 98
Slowest packet = 231
Minimum flit latency = 9
Average flit latency = 36.8085
Maximum flit latency = 98
Slowest flit = 231
Minimum fragmentation = 0
Average fragmentation = 0
Maximum fragmentation = 0
Minimum injected packet rate = 0.0395 (at node 8)
Average injected packet rate = 0.049125
Maximum injected packet rate = 0.057 (at node 12)
Minimum accepted packet rate = 0.039 (at node 2)
Average accepted packet rate = 0.0483125
Maximum accepted packet rate = 0.056 (at node 3)
Minimum injected flit rate = 0.0395 (at node 8)
Average injected flit rate = 0.049125
Maximum injected flit rate = 0.057 (at node 12)
Minimum accepted flit rate = 0.039 (at node 2)
Average accepted flit rate = 0.0483125
Maximum accepted flit rate = 0.056 (at node 3)
Total number of injected packets = 1572
Total number of injected flits = 1572
Average injected packet length = 1
Total number of accepted packets = 1546
Total number of accepted flits = 1546
Average accepted packet length = 1
Total in-flight flits = 26 (0 measured)
===== Time: 3000 =====
Class 0:
Minimum packet latency = 8
Average packet latency = 36.8847
Maximum packet latency = 149
Minimum network latency = 9
Average network latency = 37.8847
Maximum network latency = 150
Slowest packet = 1618
Minimum flit latency = 9
Average flit latency = 37.8847
Maximum flit latency = 150
Slowest flit = 1618
Minimum fragmentation = 0
Average fragmentation = 0
Maximum fragmentation = 0
Minimum injected packet rate = 0.045 (at node 4)
Average injected packet rate = 0.0518125
Maximum injected packet rate = 0.059 (at node 1)
Minimum accepted packet rate = 0.044 (at node 2)
Average accepted packet rate = 0.0509375
Maximum accepted packet rate = 0.059 (at node 4)
Minimum injected flit rate = 0.045 (at node 4)
Average injected flit rate = 0.0518125
Maximum injected flit rate = 0.059 (at node 1)
Minimum accepted flit rate = 0.044 (at node 2)
Average accepted flit rate = 0.0509375
Maximum accepted flit rate = 0.059 (at node 4)
Total number of injected packets = 829
Total number of injected flits = 829
Average injected packet length = 1
Total number of accepted packets = 815
Total number of accepted flits = 815
Average accepted packet length = 1
Total in-flight flits = 40 (0 measured)
===== Time: 4000 =====
Class 0:
Minimum packet latency = 8
Average packet latency = 36.7073
Maximum packet latency = 110
Minimum network latency = 9
Average network latency = 37.7073
Maximum network latency = 111
Slowest packet = 2740
Minimum flit latency = 9
Average flit latency = 38.2635
Maximum flit latency = 111
Slowest flit = 2740
Minimum fragmentation = 0
Average fragmentation = 0
Maximum fragmentation = 0
Minimum injected packet rate = 0.035 (at node 0)
Average injected packet rate = 0.0480625
Maximum injected packet rate = 0.057 (at node 9)
Minimum accepted packet rate = 0.036 (at node 0)
Average accepted packet rate = 0.048625
Maximum accepted packet rate = 0.06 (at node 6)
Minimum injected flit rate = 0.035 (at node 0)
Average injected flit rate = 0.0480625
Maximum injected flit rate = 0.057 (at node 9)
Minimum accepted flit rate = 0.036 (at node 0)
Average accepted flit rate = 0.048625
Maximum accepted flit rate = 0.06 (at node 6)
Total number of injected packets = 769
Total number of injected flits = 769
Average injected packet length = 1
Total number of accepted packets = 778
Total number of accepted flits = 778
Average accepted packet length = 1
Total in-flight flits = 31 (31 measured)
===== Time: 5000 =====
Class 0:
Minimum packet latency = 7
Average packet latency = 36.246
Maximum packet latency = 110
Minimum network latency = 8
Average network latency = 37.246
Maximum network latency = 111
Slowest packet = 3834
Minimum flit latency = 8
Average flit latency = 37.539
Maximum flit latency = 111
Slowest flit = 2740
Minimum fragmentation = 0
Average fragmentation = 0
Maximum fragmentation = 0
Minimum injected packet rate = 0.0365 (at node 0)
Average injected packet rate = 0.0476875
Maximum injected packet rate = 0.0575 (at node 9)
Minimum accepted packet rate = 0.037 (at node 0)
Average accepted packet rate = 0.048125
Maximum accepted packet rate = 0.058 (at node 6)
Minimum injected flit rate = 0.0365 (at node 0)
Average injected flit rate = 0.0476875
Maximum injected flit rate = 0.0575 (at node 9)
Minimum accepted flit rate = 0.037 (at node 0)
Average accepted flit rate = 0.048125
Maximum accepted flit rate = 0.058 (at node 6)
Total number of injected packets = 1526
Total number of injected flits = 1526
Average injected packet length = 1
Total number of accepted packets = 1540
Total number of accepted flits = 1540
Average accepted packet length = 1
Total in-flight flits = 26 (26 measured)
===== Time: 6000 =====
Class 0:
Minimum packet latency = 7
Average packet latency = 35.7408
Maximum packet latency = 110
Minimum network latency = 8
Average network latency = 36.7408
Maximum network latency = 111
Slowest packet = 3834
Minimum flit latency = 8
Average flit latency = 36.9433
Maximum flit latency = 111
Slowest flit = 2740
Minimum fragmentation = 0
Average fragmentation = 0
Maximum fragmentation = 0
Minimum injected packet rate = 0.041 (at node 0)
Average injected packet rate = 0.0481667
Maximum injected packet rate = 0.057 (at node 15)
Minimum accepted packet rate = 0.0416667 (at node 0)
Average accepted packet rate = 0.0485
Maximum accepted packet rate = 0.057 (at node 15)
Minimum injected flit rate = 0.041 (at node 0)
Average injected flit rate = 0.0481667
Maximum injected flit rate = 0.057 (at node 15)
Minimum accepted flit rate = 0.0416667 (at node 0)
Average accepted flit rate = 0.0485
Maximum accepted flit rate = 0.057 (at node 15)
Total number of injected packets = 2312
Total number of injected flits = 2312
Average injected packet length = 1
Total number of accepted packets = 2328
Total number of accepted flits = 2328
Average accepted packet length = 1
Total in-flight flits = 24 (24 measured)
Draining remaining packets ...
Class 0:
Remaining flits: 4676 4683 4688 4689 4691 4692 4695 4699 4700 4701 [...] (17 flits)
Measured flits: 4676 4683 4688 4689 4691 4692 4695 4699 4700 4701 [...] (17 flits)
Class 0:
Remaining flits: 4683 4688 4689 4691 4692 4695 4700 4701 4704 4705 [...] (15 flits)
Measured flits: 4683 4688 4689 4691 4692 4695 4700 4701 4704 4705 [...] (15 flits)
Class 0:
Remaining flits: 4691 4692 4695 4700 4701 4707 4709 4710 4711 4712 (10 flits)
Measured flits: 4691 4692 4695 4700 4701 4707 4709 4710 4711 4712 (10 flits)
Class 0:
Remaining flits: 4700 4701 4707 4709 4711 (5 flits)
Measured flits: 4700 4701 4707 4709 4711 (5 flits)
Class 0:
Remaining flits: 4700 4707 4709 4711 (4 flits)
Measured flits: 4700 4707 4709 4711 (4 flits)
Class 0:
Remaining flits: 4711 (1 flits)
Measured flits: 4711 (1 flits)
Class 0:
Remaining flits: (0 flits)
Measured flits: (0 flits)
Class 0:
Remaining flits: (0 flits)
Measured flits: (0 flits)
Class 0:
Remaining flits: (0 flits)
Measured flits: (0 flits)
Class 0:
Remaining flits: (0 flits)
Measured flits: (0 flits)
Class 0:
Remaining flits: (0 flits)
Measured flits: (0 flits)
Class 0:
Remaining flits: (0 flits)
Measured flits: (0 flits)
Class 0:
Remaining flits: (0 flits)
Measured flits: (0 flits)
Class 0:
Remaining flits: (0 flits)
Measured flits: (0 flits)
Class 0:
Remaining flits: (0 flits)
Measured flits: (0 flits)
Class 0:
Remaining flits: (0 flits)
Measured flits: (0 flits)
Class 0:
Remaining flits: (0 flits)
Measured flits: (0 flits)
Class 0:
Remaining flits: (0 flits)
Measured flits: (0 flits)
Class 0:
Remaining flits: (0 flits)
Measured flits: (0 flits)
Class 0:
Remaining flits: (0 flits)
Measured flits: (0 flits)
Class 0:
Remaining flits: (0 flits)
Measured flits: (0 flits)
Class 0:
Remaining flits: (0 flits)
Measured flits: (0 flits)
Class 0:
Remaining flits: (0 flits)
Measured flits: (0 flits)
Class 0:
Remaining flits: (0 flits)
Measured flits: (0 flits)
Class 0:
Remaining flits: (0 flits)
Measured flits: (0 flits)
Class 0:
Remaining flits: (0 flits)
Measured flits: (0 flits)
Class 0:
Remaining flits: (0 flits)
Measured flits: (0 flits)
Class 0:
Remaining flits: (0 flits)
Measured flits: (0 flits)
Class 0:
Remaining flits: (0 flits)
Measured flits: (0 flits)
Class 0:
Remaining flits: (0 flits)
Measured flits: (0 flits)
Class 0:
Remaining flits: (0 flits)
Measured flits: (0 flits)
Class 0:
Remaining flits: (0 flits)
Measured flits: (0 flits)
Class 0:
Remaining flits: (0 flits)
Measured flits: (0 flits)
Class 0:
Remaining flits: (0 flits)
Measured flits: (0 flits)
Class 0:
Remaining flits: (0 flits)
Measured flits: (0 flits)
Class 0:
Remaining flits: (0 flits)
Measured flits: (0 flits)
Class 0:
Remaining flits: (0 flits)
Measured flits: (0 flits)
Class 0:
Remaining flits: (0 flits)
Measured flits: (0 flits)
Class 0:
Remaining flits: (0 flits)
Measured flits: (0 flits)
Class 0:
Remaining flits: (0 flits)
Measured flits: (0 flits)
Class 0:
Remaining flits: (0 flits)
Measured flits: (0 flits)
Class 0:
Remaining flits: (0 flits)
Measured flits: (0 flits)
Class 0:
Remaining flits: (0 flits)
Measured flits: (0 flits)
Class 0:
Remaining flits: (0 flits)
Measured flits: (0 flits)
Class 0:
Remaining flits: (0 flits)
Measured flits: (0 flits)
Class 0:
Remaining flits: (0 flits)
Measured flits: (0 flits)
Class 0:
Remaining flits: (0 flits)
Measured flits: (0 flits)
Class 0:
Remaining flits: (0 flits)
Measured flits: (0 flits)
Class 0:
Remaining flits: (0 flits)
Measured flits: (0 flits)
Class 0:
Remaining flits: (0 flits)
Measured flits: (0 flits)
Class 0:
Remaining flits: (0 flits)
Measured flits: (0 flits)
Class 0:
Remaining flits: (0 flits)
Measured flits: (0 flits)
Class 0:
Remaining flits: (0 flits)
Measured flits: (0 flits)
Class 0:
Remaining flits: (0 flits)
Measured flits: (0 flits)
Class 0:
Remaining flits: (0 flits)
Measured flits: (0 flits)
Class 0:
Remaining flits: (0 flits)
Measured flits: (0 flits)
Class 0:
Remaining flits: (0 flits)
Measured flits: (0 flits)
Class 0:
Remaining flits: (0 flits)
Measured flits: (0 flits)
Class 0:
Remaining flits: (0 flits)
Measured flits: (0 flits)
Class 0:
Remaining flits: (0 flits)
Measured flits: (0 flits)
Class 0:
Remaining flits: (0 flits)
Measured flits: (0 flits)
Class 0:
Remaining flits: (0 flits)
Measured flits: (0 flits)
Class 0:
Remaining flits: (0 flits)
Measured flits: (0 flits)
Class 0:
Remaining flits: (0 flits)
Measured flits: (0 flits)
Class 0:
Remaining flits: (0 flits)
Measured flits: (0 flits)
Class 0:
Remaining flits: (0 flits)
Measured flits: (0 flits)
Class 0:
Remaining flits: (0 flits)
Measured flits: (0 flits)
Class 0:
Remaining flits: (0 flits)
Measured flits: (0 flits)
Class 0:
Remaining flits: (0 flits)
Measured flits: (0 flits)
Class 0:
Remaining flits: (0 flits)
Measured flits: (0 flits)
Class 0:
Remaining flits: (0 flits)
Measured flits: (0 flits)
Class 0:
Remaining flits: (0 flits)
Measured flits: (0 flits)
Class 0:
Remaining flits: (0 flits)
Measured flits: (0 flits)
Class 0:
Remaining flits: (0 flits)
Measured flits: (0 flits)
Class 0:
Remaining flits: (0 flits)
Measured flits: (0 flits)
Class 0:
Remaining flits: (0 flits)
Measured flits: (0 flits)
Class 0:
Remaining flits: (0 flits)
Measured flits: (0 flits)
Class 0:
Remaining flits: (0 flits)
Measured flits: (0 flits)
Class 0:
Remaining flits: (0 flits)
Measured flits: (0 flits)
Class 0:
Remaining flits: (0 flits)
Measured flits: (0 flits)
Class 0:
Remaining flits: (0 flits)
Measured flits: (0 flits)
Class 0:
Remaining flits: (0 flits)
Measured flits: (0 flits)
Class 0:
Remaining flits: (0 flits)
Measured flits: (0 flits)
Class 0:
Remaining flits: (0 flits)
Measured flits: (0 flits)
Class 0:
Remaining flits: (0 flits)
Measured flits: (0 flits)
Class 0:
Remaining flits: (0 flits)
Measured flits: (0 flits)
Class 0:
Remaining flits: (0 flits)
Measured flits: (0 flits)
Class 0:
Remaining flits: (0 flits)
Measured flits: (0 flits)
Class 0:
Remaining flits: (0 flits)
Measured flits: (0 flits)
Class 0:
Remaining flits: (0 flits)
Measured flits: (0 flits)
Class 0:
Remaining flits: (0 flits)
Measured flits: (0 flits)
Class 0:
Remaining flits: (0 flits)
Measured flits: (0 flits)
Class 0:
Remaining flits: (0 flits)
Measured flits: (0 flits)
Class 0:
Remaining flits: (0 flits)
Measured flits: (0 flits)
Class 0:
Remaining flits: (0 flits)
Measured flits: (0 flits)
Class 0:
Remaining flits: (0 flits)
Measured flits: (0 flits)
Class 0:
Remaining flits: (0 flits)
Measured flits: (0 flits)
Class 0:
Remaining flits: (0 flits)
Measured flits: (0 flits)
Class 0:
Remaining flits: (0 flits)
Measured flits: (0 flits)
Class 0:
Remaining flits: (0 flits)
Measured flits: (0 flits)
Class 0:
Remaining flits: (0 flits)
Measured flits: (0 flits)
Time taken is 7000 cycles
====== Traffic class 0 ======

Total number of flits generated = 4713, changed lanes = 4432
Overall minimum packet latency = 7 (1 samples)
Overall average packet latency = 35.8564 (1 samples)
Overall maximum packet latency = 110 (1 samples)
Overall minimum network latency = 8 (1 samples)
Overall average network latency = 36.8564 (1 samples)
Overall maximum network latency = 111 (1 samples)
Overall minimum flit latency = 8 (1 samples)
Overall average flit latency = 37.0548 (1 samples)
Overall maximum flit latency = 111 (1 samples)
Overall minimum fragmentation = 0 (1 samples)
Overall average fragmentation = 0 (1 samples)
Overall maximum fragmentation = 0 (1 samples)
Overall minimum injected packet rate = 0.041 (1 samples)
Overall average injected packet rate = 0.0481667 (1 samples)
Overall maximum injected packet rate = 0.057 (1 samples)
Overall minimum accepted packet rate = 0.0416667 (1 samples)
Overall average accepted packet rate = 0.0485 (1 samples)
Overall maximum accepted packet rate = 0.057 (1 samples)
Overall minimum injected flit rate = 0.041 (1 samples)
Overall average injected flit rate = 0.0481667 (1 samples)
Overall maximum injected flit rate = 0.057 (1 samples)
Overall minimum accepted flit rate = 0.0416667 (1 samples)
Overall average accepted flit rate = 0.0485 (1 samples)
Overall maximum accepted flit rate = 0.057 (1 samples)
Overall average injected packet size = 1 (1 samples)
Overall average accepted packet size = 1 (1 samples)
Overall average hops = 2.96713 (1 samples)
Overall throughput of the network (flits/cycle) = 1.571
Overall throughput of the network (packets/cycle) = 1.571
Total run time 6.63265
