make: Nothing to be done for 'all'.
Master: Running timer....
Master: Running SRC....
BEGIN Configuration File: ./examples/bitrev
// Topology

topology = torus;
k = 4;
n = 2;

// Routing
routing_function = dim_order;

// Flow control
num_vcs     = 2;
vc_buf_size = 16;
wait_for_tail_credit = 0;

// Router architecture
vc_allocator = islip;
sw_allocator = islip;
alloc_iters  = 1;

credit_delay   = 1;
routing_delay  = 1;
vc_alloc_delay = 1;
sw_alloc_delay = 1;

input_speedup     = 1;
output_speedup    = 1;
internal_speedup  = 1.0;

vc_busy_when_full = 0;

// Traffic
traffic = uniform;
packet_size = 1;

// Simulation
sim_type = throughput;

injection_rate = 0.05;

END Configuration File: ./examples/bitrev
===== Time: 10000 =====
Class 0:
Minimum packet latency = 7
Average packet latency = 25.7173
Maximum packet latency = 792
Minimum network latency = 8
Average network latency = 26.7173
Maximum network latency = 793
Slowest packet = 5193
Minimum flit latency = 8
Average flit latency = 26.7173
Maximum flit latency = 793
Slowest flit = 5174
Minimum fragmentation = 0
Average fragmentation = 0
Maximum fragmentation = 0
Minimum injected packet rate = 0.0458 (at node 0)
Average injected packet rate = 0.0494687
Maximum injected packet rate = 0.0515 (at node 12)
Minimum accepted packet rate = 0.0456 (at node 4)
Average accepted packet rate = 0.0493437
Maximum accepted packet rate = 0.0543 (at node 7)
Minimum injected flit rate = 0.0458 (at node 0)
Average injected flit rate = 0.0494687
Maximum injected flit rate = 0.0515 (at node 12)
Minimum accepted flit rate = 0.0456 (at node 4)
Average accepted flit rate = 0.0493437
Maximum accepted flit rate = 0.0543 (at node 7)
Total number of injected packets = 7915
Total number of injected flits = 7915
Average injected packet length = 1
Total number of accepted packets = 7895
Total number of accepted flits = 7895
Average accepted packet length = 1
Total in-flight flits = 20 (0 measured)
===== Time: 20000 =====
Class 0:
Minimum packet latency = 7
Average packet latency = 25.7642
Maximum packet latency = 792
Minimum network latency = 8
Average network latency = 26.7642
Maximum network latency = 793
Slowest packet = 5193
Minimum flit latency = 8
Average flit latency = 26.7642
Maximum flit latency = 793
Slowest flit = 5174
Minimum fragmentation = 0
Average fragmentation = 0
Maximum fragmentation = 0
Minimum injected packet rate = 0.0483 (at node 8)
Average injected packet rate = 0.0500375
Maximum injected packet rate = 0.0526 (at node 12)
Minimum accepted packet rate = 0.0465 (at node 4)
Average accepted packet rate = 0.0499719
Maximum accepted packet rate = 0.0536 (at node 8)
Minimum injected flit rate = 0.0483 (at node 8)
Average injected flit rate = 0.0500375
Maximum injected flit rate = 0.0526 (at node 12)
Minimum accepted flit rate = 0.0465 (at node 4)
Average accepted flit rate = 0.0499719
Maximum accepted flit rate = 0.0536 (at node 8)
Total number of injected packets = 16012
Total number of injected flits = 16012
Average injected packet length = 1
Total number of accepted packets = 15991
Total number of accepted flits = 15991
Average accepted packet length = 1
Total in-flight flits = 21 (0 measured)
===== Time: 30000 =====
Class 0:
Minimum packet latency = 7
Average packet latency = 25.6014
Maximum packet latency = 751
Minimum network latency = 8
Average network latency = 26.6014
Maximum network latency = 752
Slowest packet = 20850
Minimum flit latency = 8
Average flit latency = 26.6014
Maximum flit latency = 752
Slowest flit = 20850
Minimum fragmentation = 0
Average fragmentation = 0
Maximum fragmentation = 0
Minimum injected packet rate = 0.045 (at node 15)
Average injected packet rate = 0.0495875
Maximum injected packet rate = 0.0541 (at node 13)
Minimum accepted packet rate = 0.0446 (at node 4)
Average accepted packet rate = 0.0495813
Maximum accepted packet rate = 0.0515 (at node 7)
Minimum injected flit rate = 0.045 (at node 15)
Average injected flit rate = 0.0495875
Maximum injected flit rate = 0.0541 (at node 13)
Minimum accepted flit rate = 0.0446 (at node 4)
Average accepted flit rate = 0.0495813
Maximum accepted flit rate = 0.0515 (at node 7)
Total number of injected packets = 7934
Total number of injected flits = 7934
Average injected packet length = 1
Total number of accepted packets = 7933
Total number of accepted flits = 7933
Average accepted packet length = 1
Total in-flight flits = 22 (0 measured)
===== Time: 40000 =====
Class 0:
Minimum packet latency = 7
Average packet latency = 25.9659
Maximum packet latency = 513
Minimum network latency = 8
Average network latency = 26.9659
Maximum network latency = 514
Slowest packet = 25387
Minimum flit latency = 8
Average flit latency = 27.3235
Maximum flit latency = 623
Slowest flit = 23531
Minimum fragmentation = 0
Average fragmentation = 0
Maximum fragmentation = 0
Minimum injected packet rate = 0.0473 (at node 6)
Average injected packet rate = 0.0501938
Maximum injected packet rate = 0.0543 (at node 14)
Minimum accepted packet rate = 0.0471 (at node 13)
Average accepted packet rate = 0.0501938
Maximum accepted packet rate = 0.0544 (at node 2)
Minimum injected flit rate = 0.0473 (at node 6)
Average injected flit rate = 0.0501938
Maximum injected flit rate = 0.0543 (at node 14)
Minimum accepted flit rate = 0.0471 (at node 13)
Average accepted flit rate = 0.0501938
Maximum accepted flit rate = 0.0544 (at node 2)
Total number of injected packets = 8031
Total number of injected flits = 8031
Average injected packet length = 1
Total number of accepted packets = 8031
Total number of accepted flits = 8031
Average accepted packet length = 1
Total in-flight flits = 22 (22 measured)
===== Time: 50000 =====
Class 0:
Minimum packet latency = 7
Average packet latency = 26.1847
Maximum packet latency = 570
Minimum network latency = 8
Average network latency = 27.1847
Maximum network latency = 571
Slowest packet = 34652
Minimum flit latency = 8
Average flit latency = 27.3628
Maximum flit latency = 623
Slowest flit = 23531
Minimum fragmentation = 0
Average fragmentation = 0
Maximum fragmentation = 0
Minimum injected packet rate = 0.04815 (at node 10)
Average injected packet rate = 0.0503
Maximum injected packet rate = 0.05345 (at node 14)
Minimum accepted packet rate = 0.0481 (at node 1)
Average accepted packet rate = 0.0503094
Maximum accepted packet rate = 0.053 (at node 8)
Minimum injected flit rate = 0.04815 (at node 10)
Average injected flit rate = 0.0503
Maximum injected flit rate = 0.05345 (at node 14)
Minimum accepted flit rate = 0.0481 (at node 1)
Average accepted flit rate = 0.0503094
Maximum accepted flit rate = 0.053 (at node 8)
Total number of injected packets = 16096
Total number of injected flits = 16096
Average injected packet length = 1
Total number of accepted packets = 16099
Total number of accepted flits = 16099
Average accepted packet length = 1
Total in-flight flits = 19 (19 measured)
===== Time: 60000 =====
Class 0:
Minimum packet latency = 7
Average packet latency = 26.4889
Maximum packet latency = 603
Minimum network latency = 8
Average network latency = 27.4889
Maximum network latency = 604
Slowest packet = 45693
Minimum flit latency = 8
Average flit latency = 27.6076
Maximum flit latency = 623
Slowest flit = 23531
Minimum fragmentation = 0
Average fragmentation = 0
Maximum fragmentation = 0
Minimum injected packet rate = 0.0482 (at node 10)
Average injected packet rate = 0.0501896
Maximum injected packet rate = 0.0528667 (at node 14)
Minimum accepted packet rate = 0.0481 (at node 1)
Average accepted packet rate = 0.0501875
Maximum accepted packet rate = 0.0529333 (at node 9)
Minimum injected flit rate = 0.0482 (at node 10)
Average injected flit rate = 0.0501896
Maximum injected flit rate = 0.0528667 (at node 14)
Minimum accepted flit rate = 0.0481 (at node 1)
Average accepted flit rate = 0.0501875
Maximum accepted flit rate = 0.0529333 (at node 9)
Total number of injected packets = 24091
Total number of injected flits = 24091
Average injected packet length = 1
Total number of accepted packets = 24090
Total number of accepted flits = 24090
Average accepted packet length = 1
Total in-flight flits = 23 (23 measured)
Draining remaining packets ...
Class 0:
Remaining flits: 47994 48019 48025 48026 48027 48028 48029 48030 48031 48033 [...] (13 flits)
Measured flits: 47994 48019 48025 48026 48027 48028 48029 48030 48031 48033 [...] (13 flits)
Class 0:
Remaining flits: 47994 48033 48034 48035 (4 flits)
Measured flits: 47994 48033 48034 48035 (4 flits)
Class 0:
Remaining flits: 47994 (1 flits)
Measured flits: 47994 (1 flits)
Class 0:
Remaining flits: 47994 (1 flits)
Measured flits: 47994 (1 flits)
Class 0:
Remaining flits: 47994 (1 flits)
Measured flits: 47994 (1 flits)
Class 0:
Remaining flits: 47994 (1 flits)
Measured flits: 47994 (1 flits)
Class 0:
Remaining flits: 47994 (1 flits)
Measured flits: 47994 (1 flits)
Class 0:
Remaining flits: 47994 (1 flits)
Measured flits: 47994 (1 flits)
Class 0:
Remaining flits: 47994 (1 flits)
Measured flits: 47994 (1 flits)
Class 0:
Remaining flits: 47994 (1 flits)
Measured flits: 47994 (1 flits)
Class 0:
Remaining flits: 47994 (1 flits)
Measured flits: 47994 (1 flits)
Class 0:
Remaining flits: 47994 (1 flits)
Measured flits: 47994 (1 flits)
Class 0:
Remaining flits: 47994 (1 flits)
Measured flits: 47994 (1 flits)
Class 0:
Remaining flits: 47994 (1 flits)
Measured flits: 47994 (1 flits)
Class 0:
Remaining flits: 47994 (1 flits)
Measured flits: 47994 (1 flits)
Class 0:
Remaining flits: 47994 (1 flits)
Measured flits: 47994 (1 flits)
Class 0:
Remaining flits: 47994 (1 flits)
Measured flits: 47994 (1 flits)
Class 0:
Remaining flits: 47994 (1 flits)
Measured flits: 47994 (1 flits)
Class 0:
Remaining flits: 47994 (1 flits)
Measured flits: 47994 (1 flits)
Class 0:
Remaining flits: 47994 (1 flits)
Measured flits: 47994 (1 flits)
Class 0:
Remaining flits: 47994 (1 flits)
Measured flits: 47994 (1 flits)
Class 0:
Remaining flits: 47994 (1 flits)
Measured flits: 47994 (1 flits)
Class 0:
Remaining flits: 47994 (1 flits)
Measured flits: 47994 (1 flits)
Class 0:
Remaining flits: 47994 (1 flits)
Measured flits: 47994 (1 flits)
Class 0:
Remaining flits: 47994 (1 flits)
Measured flits: 47994 (1 flits)
Class 0:
Remaining flits: 47994 (1 flits)
Measured flits: 47994 (1 flits)
Class 0:
Remaining flits: 47994 (1 flits)
Measured flits: 47994 (1 flits)
Class 0:
Remaining flits: 47994 (1 flits)
Measured flits: 47994 (1 flits)
Class 0:
Remaining flits: 47994 (1 flits)
Measured flits: 47994 (1 flits)
Class 0:
Remaining flits: 47994 (1 flits)
Measured flits: 47994 (1 flits)
Class 0:
Remaining flits: 47994 (1 flits)
Measured flits: 47994 (1 flits)
Class 0:
Remaining flits: 47994 (1 flits)
Measured flits: 47994 (1 flits)
Class 0:
Remaining flits: 47994 (1 flits)
Measured flits: 47994 (1 flits)
Class 0:
Remaining flits: 47994 (1 flits)
Measured flits: 47994 (1 flits)
Class 0:
Remaining flits: 47994 (1 flits)
Measured flits: 47994 (1 flits)
Class 0:
Remaining flits: 47994 (1 flits)
Measured flits: 47994 (1 flits)
Class 0:
Remaining flits: 47994 (1 flits)
Measured flits: 47994 (1 flits)
Class 0:
Remaining flits: 47994 (1 flits)
Measured flits: 47994 (1 flits)
Class 0:
Remaining flits: 47994 (1 flits)
Measured flits: 47994 (1 flits)
Class 0:
Remaining flits: 47994 (1 flits)
Measured flits: 47994 (1 flits)
Class 0:
Remaining flits: 47994 (1 flits)
Measured flits: 47994 (1 flits)
Class 0:
Remaining flits: 47994 (1 flits)
Measured flits: 47994 (1 flits)
Class 0:
Remaining flits: 47994 (1 flits)
Measured flits: 47994 (1 flits)
Class 0:
Remaining flits: 47994 (1 flits)
Measured flits: 47994 (1 flits)
Class 0:
Remaining flits: 47994 (1 flits)
Measured flits: 47994 (1 flits)
Class 0:
Remaining flits: 47994 (1 flits)
Measured flits: 47994 (1 flits)
Class 0:
Remaining flits: 47994 (1 flits)
Measured flits: 47994 (1 flits)
Class 0:
Remaining flits: 47994 (1 flits)
Measured flits: 47994 (1 flits)
Class 0:
Remaining flits: 47994 (1 flits)
Measured flits: 47994 (1 flits)
Class 0:
Remaining flits: 47994 (1 flits)
Measured flits: 47994 (1 flits)
Class 0:
Remaining flits: 47994 (1 flits)
Measured flits: 47994 (1 flits)
Class 0:
Remaining flits: 47994 (1 flits)
Measured flits: 47994 (1 flits)
Class 0:
Remaining flits: 47994 (1 flits)
Measured flits: 47994 (1 flits)
Class 0:
Remaining flits: 47994 (1 flits)
Measured flits: 47994 (1 flits)
Class 0:
Remaining flits: 47994 (1 flits)
Measured flits: 47994 (1 flits)
Class 0:
Remaining flits: 47994 (1 flits)
Measured flits: 47994 (1 flits)
Class 0:
Remaining flits: 47994 (1 flits)
Measured flits: 47994 (1 flits)
Class 0:
Remaining flits: 47994 (1 flits)
Measured flits: 47994 (1 flits)
Class 0:
Remaining flits: 47994 (1 flits)
Measured flits: 47994 (1 flits)
Class 0:
Remaining flits: 47994 (1 flits)
Measured flits: 47994 (1 flits)
Class 0:
Remaining flits: 47994 (1 flits)
Measured flits: 47994 (1 flits)
Class 0:
Remaining flits: 47994 (1 flits)
Measured flits: 47994 (1 flits)
Class 0:
Remaining flits: 47994 (1 flits)
Measured flits: 47994 (1 flits)
Class 0:
Remaining flits: 47994 (1 flits)
Measured flits: 47994 (1 flits)
Class 0:
Remaining flits: 47994 (1 flits)
Measured flits: 47994 (1 flits)
Class 0:
Remaining flits: 47994 (1 flits)
Measured flits: 47994 (1 flits)
Class 0:
Remaining flits: 47994 (1 flits)
Measured flits: 47994 (1 flits)
Class 0:
Remaining flits: 47994 (1 flits)
Measured flits: 47994 (1 flits)
Class 0:
Remaining flits: 47994 (1 flits)
Measured flits: 47994 (1 flits)
Class 0:
Remaining flits: 47994 (1 flits)
Measured flits: 47994 (1 flits)
Class 0:
Remaining flits: 47994 (1 flits)
Measured flits: 47994 (1 flits)
Class 0:
Remaining flits: 47994 (1 flits)
Measured flits: 47994 (1 flits)
Class 0:
Remaining flits: 47994 (1 flits)
Measured flits: 47994 (1 flits)
Class 0:
Remaining flits: 47994 (1 flits)
Measured flits: 47994 (1 flits)
Class 0:
Remaining flits: 47994 (1 flits)
Measured flits: 47994 (1 flits)
Class 0:
Remaining flits: 47994 (1 flits)
Measured flits: 47994 (1 flits)
Class 0:
Remaining flits: 47994 (1 flits)
Measured flits: 47994 (1 flits)
Class 0:
Remaining flits: 47994 (1 flits)
Measured flits: 47994 (1 flits)
Class 0:
Remaining flits: 47994 (1 flits)
Measured flits: 47994 (1 flits)
Class 0:
Remaining flits: 47994 (1 flits)
Measured flits: 47994 (1 flits)
Class 0:
Remaining flits: 47994 (1 flits)
Measured flits: 47994 (1 flits)
Class 0:
Remaining flits: 47994 (1 flits)
Measured flits: 47994 (1 flits)
Class 0:
Remaining flits: 47994 (1 flits)
Measured flits: 47994 (1 flits)
Class 0:
Remaining flits: 47994 (1 flits)
Measured flits: 47994 (1 flits)
Class 0:
Remaining flits: 47994 (1 flits)
Measured flits: 47994 (1 flits)
Class 0:
Remaining flits: 47994 (1 flits)
Measured flits: 47994 (1 flits)
Class 0:
Remaining flits: 47994 (1 flits)
Measured flits: 47994 (1 flits)
Class 0:
Remaining flits: 47994 (1 flits)
Measured flits: 47994 (1 flits)
Class 0:
Remaining flits: 47994 (1 flits)
Measured flits: 47994 (1 flits)
Class 0:
Remaining flits: 47994 (1 flits)
Measured flits: 47994 (1 flits)
Class 0:
Remaining flits: 47994 (1 flits)
Measured flits: 47994 (1 flits)
Class 0:
Remaining flits: 47994 (1 flits)
Measured flits: 47994 (1 flits)
Class 0:
Remaining flits: 47994 (1 flits)
Measured flits: 47994 (1 flits)
Class 0:
Remaining flits: 47994 (1 flits)
Measured flits: 47994 (1 flits)
Class 0:
Remaining flits: 47994 (1 flits)
Measured flits: 47994 (1 flits)
Class 0:
Remaining flits: 47994 (1 flits)
Measured flits: 47994 (1 flits)
Class 0:
Remaining flits: 47994 (1 flits)
Measured flits: 47994 (1 flits)
Class 0:
Remaining flits: 47994 (1 flits)
Measured flits: 47994 (1 flits)
Class 0:
Remaining flits: 47994 (1 flits)
Measured flits: 47994 (1 flits)
Class 0:
Remaining flits: 47994 (1 flits)
Measured flits: 47994 (1 flits)
Class 0:
Remaining flits: 47994 (1 flits)
Measured flits: 47994 (1 flits)
Time taken is 61000 cycles
====== Traffic class 0 ======

Total number of flits generated = 48037, changed lanes = 38725
Overall minimum packet latency = 7 (1 samples)
Overall average packet latency = 26.4883 (1 samples)
Overall maximum packet latency = 603 (1 samples)
Overall minimum network latency = 8 (1 samples)
Overall average network latency = 27.4883 (1 samples)
Overall maximum network latency = 604 (1 samples)
Overall minimum flit latency = 8 (1 samples)
Overall average flit latency = 27.607 (1 samples)
Overall maximum flit latency = 623 (1 samples)
Overall minimum fragmentation = 0 (1 samples)
Overall average fragmentation = 0 (1 samples)
Overall maximum fragmentation = 0 (1 samples)
Overall minimum injected packet rate = 0.0482 (1 samples)
Overall average injected packet rate = 0.0501896 (1 samples)
Overall maximum injected packet rate = 0.0528667 (1 samples)
Overall minimum accepted packet rate = 0.0481 (1 samples)
Overall average accepted packet rate = 0.0501875 (1 samples)
Overall maximum accepted packet rate = 0.0529333 (1 samples)
Overall minimum injected flit rate = 0.0482 (1 samples)
Overall average injected flit rate = 0.0501896 (1 samples)
Overall maximum injected flit rate = 0.0528667 (1 samples)
Overall minimum accepted flit rate = 0.0481 (1 samples)
Overall average accepted flit rate = 0.0501875 (1 samples)
Overall maximum accepted flit rate = 0.0529333 (1 samples)
Overall average injected packet size = 1 (1 samples)
Overall average accepted packet size = 1 (1 samples)
Overall average hops = 2.99734 (1 samples)
Overall throughput of the network (flits/cycle) = 1.6012
Overall throughput of the network (packets/cycle) = 1.6012
Total run time 71.0261
