Master: Running timer....
Master: Running SRC....
BEGIN Configuration File: ./examples/bitrev
// Topology

topology = torus;
k = 4;
n = 2;

// Routing
routing_function = dim_order;

// Flow control
num_vcs     = 32;
vc_buf_size = 1;
wait_for_tail_credit = 0;

// Router architecture
vc_allocator = islip;
sw_allocator = islip;
alloc_iters  = 1;

credit_delay   = 1;
routing_delay  = 1;
vc_alloc_delay = 1;
sw_alloc_delay = 1;

input_speedup     = 1;
output_speedup    = 1;
internal_speedup  = 1.0;

vc_busy_when_full = 0;

// Traffic
traffic = uniform;
packet_size = 1;

// Simulation
sim_type = throughput;

injection_rate = 0.05;

END Configuration File: ./examples/bitrev
===== Time: 1000 =====
Class 0:
Minimum packet latency = 7
Average packet latency = 26.4867
Maximum packet latency = 85
Minimum network latency = 8
Average network latency = 27.4867
Maximum network latency = 86
Slowest packet = 524
Minimum flit latency = 8
Average flit latency = 27.4867
Maximum flit latency = 86
Slowest flit = 516
Minimum fragmentation = 0
Average fragmentation = 0
Maximum fragmentation = 0
Minimum injected packet rate = 0.041 (at node 5)
Average injected packet rate = 0.048875
Maximum injected packet rate = 0.054 (at node 1)
Minimum accepted packet rate = 0.034 (at node 6)
Average accepted packet rate = 0.046875
Maximum accepted packet rate = 0.056 (at node 10)
Minimum injected flit rate = 0.041 (at node 5)
Average injected flit rate = 0.048875
Maximum injected flit rate = 0.054 (at node 1)
Minimum accepted flit rate = 0.034 (at node 6)
Average accepted flit rate = 0.046875
Maximum accepted flit rate = 0.056 (at node 10)
Total number of injected packets = 782
Total number of injected flits = 782
Average injected packet length = 1
Total number of accepted packets = 750
Total number of accepted flits = 750
Average accepted packet length = 1
Total in-flight flits = 32 (0 measured)
===== Time: 2000 =====
Class 0:
Minimum packet latency = 7
Average packet latency = 30.2447
Maximum packet latency = 330
Minimum network latency = 8
Average network latency = 31.2447
Maximum network latency = 331
Slowest packet = 685
Minimum flit latency = 8
Average flit latency = 31.2447
Maximum flit latency = 331
Slowest flit = 685
Minimum fragmentation = 0
Average fragmentation = 0
Maximum fragmentation = 0
Minimum injected packet rate = 0.0395 (at node 8)
Average injected packet rate = 0.049125
Maximum injected packet rate = 0.057 (at node 12)
Minimum accepted packet rate = 0.04 (at node 14)
Average accepted packet rate = 0.0485312
Maximum accepted packet rate = 0.056 (at node 10)
Minimum injected flit rate = 0.0395 (at node 8)
Average injected flit rate = 0.049125
Maximum injected flit rate = 0.057 (at node 12)
Minimum accepted flit rate = 0.04 (at node 14)
Average accepted flit rate = 0.0485312
Maximum accepted flit rate = 0.056 (at node 10)
Total number of injected packets = 1572
Total number of injected flits = 1572
Average injected packet length = 1
Total number of accepted packets = 1553
Total number of accepted flits = 1553
Average accepted packet length = 1
Total in-flight flits = 19 (0 measured)
===== Time: 3000 =====
Class 0:
Minimum packet latency = 7
Average packet latency = 27.2732
Maximum packet latency = 166
Minimum network latency = 8
Average network latency = 28.2732
Maximum network latency = 167
Slowest packet = 2144
Minimum flit latency = 8
Average flit latency = 28.2732
Maximum flit latency = 167
Slowest flit = 2144
Minimum fragmentation = 0
Average fragmentation = 0
Maximum fragmentation = 0
Minimum injected packet rate = 0.045 (at node 4)
Average injected packet rate = 0.0518125
Maximum injected packet rate = 0.059 (at node 1)
Minimum accepted packet rate = 0.041 (at node 10)
Average accepted packet rate = 0.05125
Maximum accepted packet rate = 0.059 (at node 5)
Minimum injected flit rate = 0.045 (at node 4)
Average injected flit rate = 0.0518125
Maximum injected flit rate = 0.059 (at node 1)
Minimum accepted flit rate = 0.041 (at node 10)
Average accepted flit rate = 0.05125
Maximum accepted flit rate = 0.059 (at node 5)
Total number of injected packets = 829
Total number of injected flits = 829
Average injected packet length = 1
Total number of accepted packets = 820
Total number of accepted flits = 820
Average accepted packet length = 1
Total in-flight flits = 28 (0 measured)
===== Time: 4000 =====
Class 0:
Minimum packet latency = 7
Average packet latency = 28.2209
Maximum packet latency = 242
Minimum network latency = 8
Average network latency = 29.2209
Maximum network latency = 243
Slowest packet = 2570
Minimum flit latency = 8
Average flit latency = 29.2647
Maximum flit latency = 243
Slowest flit = 2570
Minimum fragmentation = 0
Average fragmentation = 0
Maximum fragmentation = 0
Minimum injected packet rate = 0.034 (at node 0)
Average injected packet rate = 0.0476875
Maximum injected packet rate = 0.058 (at node 15)
Minimum accepted packet rate = 0.032 (at node 9)
Average accepted packet rate = 0.0425
Maximum accepted packet rate = 0.055 (at node 11)
Minimum injected flit rate = 0.034 (at node 0)
Average injected flit rate = 0.0476875
Maximum injected flit rate = 0.058 (at node 15)
Minimum accepted flit rate = 0.032 (at node 9)
Average accepted flit rate = 0.0425
Maximum accepted flit rate = 0.055 (at node 11)
Total number of injected packets = 763
Total number of injected flits = 763
Average injected packet length = 1
Total number of accepted packets = 680
Total number of accepted flits = 680
Average accepted packet length = 1
Total in-flight flits = 112 (112 measured)
===== Time: 5000 =====
Class 0:
Minimum packet latency = 7
Average packet latency = 51.905
Maximum packet latency = 712
Minimum network latency = 8
Average network latency = 52.6419
Maximum network latency = 713
Slowest packet = 2654
Minimum flit latency = 8
Average flit latency = 52.2335
Maximum flit latency = 713
Slowest flit = 2654
Minimum fragmentation = 0
Average fragmentation = 0
Maximum fragmentation = 0
Minimum injected packet rate = 0.0375 (at node 0)
Average injected packet rate = 0.0476875
Maximum injected packet rate = 0.0585 (at node 9)
Minimum accepted packet rate = 0.039 (at node 4)
Average accepted packet rate = 0.0479062
Maximum accepted packet rate = 0.0545 (at node 0)
Minimum injected flit rate = 0.0375 (at node 0)
Average injected flit rate = 0.0476875
Maximum injected flit rate = 0.0585 (at node 9)
Minimum accepted flit rate = 0.039 (at node 4)
Average accepted flit rate = 0.0479062
Maximum accepted flit rate = 0.0545 (at node 0)
Total number of injected packets = 1526
Total number of injected flits = 1526
Average injected packet length = 1
Total number of accepted packets = 1533
Total number of accepted flits = 1533
Average accepted packet length = 1
Total in-flight flits = 21 (21 measured)
===== Time: 6000 =====
Class 0:
Minimum packet latency = 7
Average packet latency = 43.291
Maximum packet latency = 712
Minimum network latency = 8
Average network latency = 44.1182
Maximum network latency = 713
Slowest packet = 2654
Minimum flit latency = 8
Average flit latency = 43.9513
Maximum flit latency = 713
Slowest flit = 2654
Minimum fragmentation = 0
Average fragmentation = 0
Maximum fragmentation = 0
Minimum injected packet rate = 0.0416667 (at node 0)
Average injected packet rate = 0.0481667
Maximum injected packet rate = 0.0563333 (at node 15)
Minimum accepted packet rate = 0.0406667 (at node 4)
Average accepted packet rate = 0.0483333
Maximum accepted packet rate = 0.053 (at node 8)
Minimum injected flit rate = 0.0416667 (at node 0)
Average injected flit rate = 0.0481667
Maximum injected flit rate = 0.0563333 (at node 15)
Minimum accepted flit rate = 0.0406667 (at node 4)
Average accepted flit rate = 0.0483333
Maximum accepted flit rate = 0.053 (at node 8)
Total number of injected packets = 2312
Total number of injected flits = 2312
Average injected packet length = 1
Total number of accepted packets = 2320
Total number of accepted flits = 2320
Average accepted packet length = 1
Total in-flight flits = 20 (20 measured)
===== Time: 7000 =====
Class 0:
Minimum packet latency = 7
Average packet latency = 38.8537
Maximum packet latency = 712
Minimum network latency = 8
Average network latency = 39.7263
Maximum network latency = 713
Slowest packet = 2654
Minimum flit latency = 8
Average flit latency = 39.642
Maximum flit latency = 713
Slowest flit = 2654
Minimum fragmentation = 0
Average fragmentation = 0
Maximum fragmentation = 0
Minimum injected packet rate = 0.04325 (at node 0)
Average injected packet rate = 0.0488906
Maximum injected packet rate = 0.0535 (at node 15)
Minimum accepted packet rate = 0.041 (at node 14)
Average accepted packet rate = 0.0490156
Maximum accepted packet rate = 0.054 (at node 0)
Minimum injected flit rate = 0.04325 (at node 0)
Average injected flit rate = 0.0488906
Maximum injected flit rate = 0.0535 (at node 15)
Minimum accepted flit rate = 0.041 (at node 14)
Average accepted flit rate = 0.0490156
Maximum accepted flit rate = 0.054 (at node 0)
Total number of injected packets = 3129
Total number of injected flits = 3129
Average injected packet length = 1
Total number of accepted packets = 3137
Total number of accepted flits = 3137
Average accepted packet length = 1
Total in-flight flits = 20 (20 measured)
===== Time: 8000 =====
Class 0:
Minimum packet latency = 7
Average packet latency = 36.6381
Maximum packet latency = 712
Minimum network latency = 8
Average network latency = 37.5371
Maximum network latency = 713
Slowest packet = 2654
Minimum flit latency = 8
Average flit latency = 37.4857
Maximum flit latency = 713
Slowest flit = 2654
Minimum fragmentation = 0
Average fragmentation = 0
Maximum fragmentation = 0
Minimum injected packet rate = 0.044 (at node 0)
Average injected packet rate = 0.0492625
Maximum injected packet rate = 0.0538 (at node 9)
Minimum accepted packet rate = 0.0426 (at node 4)
Average accepted packet rate = 0.0493625
Maximum accepted packet rate = 0.0562 (at node 7)
Minimum injected flit rate = 0.044 (at node 0)
Average injected flit rate = 0.0492625
Maximum injected flit rate = 0.0538 (at node 9)
Minimum accepted flit rate = 0.0426 (at node 4)
Average accepted flit rate = 0.0493625
Maximum accepted flit rate = 0.0562 (at node 7)
Total number of injected packets = 3941
Total number of injected flits = 3941
Average injected packet length = 1
Total number of accepted packets = 3949
Total number of accepted flits = 3949
Average accepted packet length = 1
Total in-flight flits = 20 (20 measured)
Draining remaining packets ...
Class 0:
Remaining flits: 6320 6322 6323 6327 6328 6331 6332 6333 6334 6335 [...] (16 flits)
Measured flits: 6320 6322 6323 6327 6328 6331 6332 6333 6334 6335 [...] (16 flits)
Class 0:
Remaining flits: 6327 6331 6334 6336 6340 6341 (6 flits)
Measured flits: 6327 6331 6334 6336 6340 6341 (6 flits)
Class 0:
Remaining flits: 6340 6341 (2 flits)
Measured flits: 6340 6341 (2 flits)
Class 0:
Remaining flits: (0 flits)
Measured flits: (0 flits)
Class 0:
Remaining flits: (0 flits)
Measured flits: (0 flits)
Class 0:
Remaining flits: (0 flits)
Measured flits: (0 flits)
Class 0:
Remaining flits: (0 flits)
Measured flits: (0 flits)
Class 0:
Remaining flits: (0 flits)
Measured flits: (0 flits)
Class 0:
Remaining flits: (0 flits)
Measured flits: (0 flits)
Class 0:
Remaining flits: (0 flits)
Measured flits: (0 flits)
Class 0:
Remaining flits: (0 flits)
Measured flits: (0 flits)
Class 0:
Remaining flits: (0 flits)
Measured flits: (0 flits)
Class 0:
Remaining flits: (0 flits)
Measured flits: (0 flits)
Class 0:
Remaining flits: (0 flits)
Measured flits: (0 flits)
Class 0:
Remaining flits: (0 flits)
Measured flits: (0 flits)
Class 0:
Remaining flits: (0 flits)
Measured flits: (0 flits)
Class 0:
Remaining flits: (0 flits)
Measured flits: (0 flits)
Class 0:
Remaining flits: (0 flits)
Measured flits: (0 flits)
Class 0:
Remaining flits: (0 flits)
Measured flits: (0 flits)
Class 0:
Remaining flits: (0 flits)
Measured flits: (0 flits)
Class 0:
Remaining flits: (0 flits)
Measured flits: (0 flits)
Class 0:
Remaining flits: (0 flits)
Measured flits: (0 flits)
Class 0:
Remaining flits: (0 flits)
Measured flits: (0 flits)
Class 0:
Remaining flits: (0 flits)
Measured flits: (0 flits)
Class 0:
Remaining flits: (0 flits)
Measured flits: (0 flits)
Class 0:
Remaining flits: (0 flits)
Measured flits: (0 flits)
Class 0:
Remaining flits: (0 flits)
Measured flits: (0 flits)
Class 0:
Remaining flits: (0 flits)
Measured flits: (0 flits)
Class 0:
Remaining flits: (0 flits)
Measured flits: (0 flits)
Class 0:
Remaining flits: (0 flits)
Measured flits: (0 flits)
Class 0:
Remaining flits: (0 flits)
Measured flits: (0 flits)
Class 0:
Remaining flits: (0 flits)
Measured flits: (0 flits)
Class 0:
Remaining flits: (0 flits)
Measured flits: (0 flits)
Class 0:
Remaining flits: (0 flits)
Measured flits: (0 flits)
Class 0:
Remaining flits: (0 flits)
Measured flits: (0 flits)
Class 0:
Remaining flits: (0 flits)
Measured flits: (0 flits)
Class 0:
Remaining flits: (0 flits)
Measured flits: (0 flits)
Class 0:
Remaining flits: (0 flits)
Measured flits: (0 flits)
Class 0:
Remaining flits: (0 flits)
Measured flits: (0 flits)
Class 0:
Remaining flits: (0 flits)
Measured flits: (0 flits)
Class 0:
Remaining flits: (0 flits)
Measured flits: (0 flits)
Class 0:
Remaining flits: (0 flits)
Measured flits: (0 flits)
Class 0:
Remaining flits: (0 flits)
Measured flits: (0 flits)
Class 0:
Remaining flits: (0 flits)
Measured flits: (0 flits)
Class 0:
Remaining flits: (0 flits)
Measured flits: (0 flits)
Class 0:
Remaining flits: (0 flits)
Measured flits: (0 flits)
Class 0:
Remaining flits: (0 flits)
Measured flits: (0 flits)
Class 0:
Remaining flits: (0 flits)
Measured flits: (0 flits)
Class 0:
Remaining flits: (0 flits)
Measured flits: (0 flits)
Class 0:
Remaining flits: (0 flits)
Measured flits: (0 flits)
Class 0:
Remaining flits: (0 flits)
Measured flits: (0 flits)
Class 0:
Remaining flits: (0 flits)
Measured flits: (0 flits)
Class 0:
Remaining flits: (0 flits)
Measured flits: (0 flits)
Class 0:
Remaining flits: (0 flits)
Measured flits: (0 flits)
Class 0:
Remaining flits: (0 flits)
Measured flits: (0 flits)
Class 0:
Remaining flits: (0 flits)
Measured flits: (0 flits)
Class 0:
Remaining flits: (0 flits)
Measured flits: (0 flits)
Class 0:
Remaining flits: (0 flits)
Measured flits: (0 flits)
Class 0:
Remaining flits: (0 flits)
Measured flits: (0 flits)
Class 0:
Remaining flits: (0 flits)
Measured flits: (0 flits)
Class 0:
Remaining flits: (0 flits)
Measured flits: (0 flits)
Class 0:
Remaining flits: (0 flits)
Measured flits: (0 flits)
Class 0:
Remaining flits: (0 flits)
Measured flits: (0 flits)
Class 0:
Remaining flits: (0 flits)
Measured flits: (0 flits)
Class 0:
Remaining flits: (0 flits)
Measured flits: (0 flits)
Class 0:
Remaining flits: (0 flits)
Measured flits: (0 flits)
Class 0:
Remaining flits: (0 flits)
Measured flits: (0 flits)
Class 0:
Remaining flits: (0 flits)
Measured flits: (0 flits)
Class 0:
Remaining flits: (0 flits)
Measured flits: (0 flits)
Class 0:
Remaining flits: (0 flits)
Measured flits: (0 flits)
Class 0:
Remaining flits: (0 flits)
Measured flits: (0 flits)
Class 0:
Remaining flits: (0 flits)
Measured flits: (0 flits)
Class 0:
Remaining flits: (0 flits)
Measured flits: (0 flits)
Class 0:
Remaining flits: (0 flits)
Measured flits: (0 flits)
Class 0:
Remaining flits: (0 flits)
Measured flits: (0 flits)
Class 0:
Remaining flits: (0 flits)
Measured flits: (0 flits)
Class 0:
Remaining flits: (0 flits)
Measured flits: (0 flits)
Class 0:
Remaining flits: (0 flits)
Measured flits: (0 flits)
Class 0:
Remaining flits: (0 flits)
Measured flits: (0 flits)
Class 0:
Remaining flits: (0 flits)
Measured flits: (0 flits)
Class 0:
Remaining flits: (0 flits)
Measured flits: (0 flits)
Class 0:
Remaining flits: (0 flits)
Measured flits: (0 flits)
Class 0:
Remaining flits: (0 flits)
Measured flits: (0 flits)
Class 0:
Remaining flits: (0 flits)
Measured flits: (0 flits)
Class 0:
Remaining flits: (0 flits)
Measured flits: (0 flits)
Class 0:
Remaining flits: (0 flits)
Measured flits: (0 flits)
Class 0:
Remaining flits: (0 flits)
Measured flits: (0 flits)
Class 0:
Remaining flits: (0 flits)
Measured flits: (0 flits)
Class 0:
Remaining flits: (0 flits)
Measured flits: (0 flits)
Class 0:
Remaining flits: (0 flits)
Measured flits: (0 flits)
Class 0:
Remaining flits: (0 flits)
Measured flits: (0 flits)
Class 0:
Remaining flits: (0 flits)
Measured flits: (0 flits)
Class 0:
Remaining flits: (0 flits)
Measured flits: (0 flits)
Class 0:
Remaining flits: (0 flits)
Measured flits: (0 flits)
Class 0:
Remaining flits: (0 flits)
Measured flits: (0 flits)
Class 0:
Remaining flits: (0 flits)
Measured flits: (0 flits)
Class 0:
Remaining flits: (0 flits)
Measured flits: (0 flits)
Class 0:
Remaining flits: (0 flits)
Measured flits: (0 flits)
Class 0:
Remaining flits: (0 flits)
Measured flits: (0 flits)
Class 0:
Remaining flits: (0 flits)
Measured flits: (0 flits)
Class 0:
Remaining flits: (0 flits)
Measured flits: (0 flits)
Time taken is 9000 cycles
====== Traffic class 0 ======

Total number of flits generated = 6342, changed lanes = 6310
Overall minimum packet latency = 7 (1 samples)
Overall average packet latency = 36.6064 (1 samples)
Overall maximum packet latency = 712 (1 samples)
Overall minimum network latency = 8 (1 samples)
Overall average network latency = 37.506 (1 samples)
Overall maximum network latency = 713 (1 samples)
Overall minimum flit latency = 8 (1 samples)
Overall average flit latency = 37.455 (1 samples)
Overall maximum flit latency = 713 (1 samples)
Overall minimum fragmentation = 0 (1 samples)
Overall average fragmentation = 0 (1 samples)
Overall maximum fragmentation = 0 (1 samples)
Overall minimum injected packet rate = 0.044 (1 samples)
Overall average injected packet rate = 0.0492625 (1 samples)
Overall maximum injected packet rate = 0.0538 (1 samples)
Overall minimum accepted packet rate = 0.0426 (1 samples)
Overall average accepted packet rate = 0.0493625 (1 samples)
Overall maximum accepted packet rate = 0.0562 (1 samples)
Overall minimum injected flit rate = 0.044 (1 samples)
Overall average injected flit rate = 0.0492625 (1 samples)
Overall maximum injected flit rate = 0.0538 (1 samples)
Overall minimum accepted flit rate = 0.0426 (1 samples)
Overall average accepted flit rate = 0.0493625 (1 samples)
Overall maximum accepted flit rate = 0.0562 (1 samples)
Overall average injected packet size = 1 (1 samples)
Overall average accepted packet size = 1 (1 samples)
Overall average hops = 3.01497 (1 samples)
Overall throughput of the network (flits/cycle) = 1.2684
Overall throughput of the network (packets/cycle) = 1.2684
Total run time 21.5093
