make: Nothing to be done for 'all'.
Master: Running timer....
Master: Running SRC....
BEGIN Configuration File: ./examples/mesh88_lat_blackscholes
// $Id$

topology = mesh;
k = 8;
n = 2;

// Routing
routing_function = planar_adapt;

// Flow control
num_vcs     = 1;
vc_buf_size = 4;
wait_for_tail_credit = 1;

// Router architecture
vc_allocator = islip;
sw_allocator = islip;
alloc_iters  = 1;

credit_delay   = 1;
routing_delay  = 1;
vc_alloc_delay = 1;
sw_alloc_delay = 1;

input_speedup     = 1;
output_speedup    = 1;
internal_speedup  = 1.0;

vc_busy_when_full = 0;

// Traffic
workload=netrace({/home/sarab/Downloads/BookSim_Benchmark_files/dedup_64c_simmedium.tra.bz2,100000000,1,2,1,1,0);

// Simulation
sim_type = workload;

END Configuration File: ./examples/mesh88_lat_blackscholes
Warming up...
===== Time: 10000 =====
Class 0:
Packets read from trace = 81 of 100000000 (0%)
Future packets = 1
Waiting packets = 0
Stalled packets = 66
Packets pending injection = 1
Packets in flight = 5
Minimum packet latency = 36
Average packet latency = 631.125
Maximum packet latency = 2238
Minimum network latency = 36
Average network latency = 630.25
Maximum network latency = 2234
Slowest packet = 5
Minimum flit latency = 36
Average flit latency = 211.463
Maximum flit latency = 2225
Slowest flit = 17
Minimum fragmentation = 0
Average fragmentation = 553.75
Maximum fragmentation = 2133
Minimum injected packet rate = 0 (at node 0)
Average injected packet rate = 2.03125e-05
Maximum injected packet rate = 0.0003 (at node 14)
Minimum accepted packet rate = 0 (at node 0)
Average accepted packet rate = 1.25e-05
Maximum accepted packet rate = 0.0002 (at node 20)
Minimum injected flit rate = 0 (at node 0)
Average injected flit rate = 8.125e-05
Maximum injected flit rate = 0.0015 (at node 14)
Minimum accepted flit rate = 0 (at node 0)
Average accepted flit rate = 6.40625e-05
Maximum accepted flit rate = 0.0014 (at node 61)
Total number of injected packets = 13
Total number of injected flits = 52
Average injected packet length = 4
Total number of accepted packets = 8
Total number of accepted flits = 41
Average accepted packet length = 5.125
Total in-flight flits = 12 (0 measured)
===== Time: 20000 =====
Class 0:
Packets read from trace = 139 of 100000000 (0%)
Future packets = 1
Waiting packets = 0
Stalled packets = 116
Packets pending injection = 5
Packets in flight = 7
Minimum packet latency = 36
Average packet latency = 1133.5
Maximum packet latency = 4483
Minimum network latency = 36
Average network latency = 1132.4
Maximum network latency = 4479
Slowest packet = 8
Minimum flit latency = 30
Average flit latency = 357.894
Maximum flit latency = 4467
Slowest flit = 32
Minimum fragmentation = 0
Average fragmentation = 1061.1
Maximum fragmentation = 4412
Minimum injected packet rate = 0 (at node 0)
Average injected packet rate = 1.25e-05
Maximum injected packet rate = 0.00015 (at node 14)
Minimum accepted packet rate = 0 (at node 0)
Average accepted packet rate = 7.8125e-06
Maximum accepted packet rate = 0.0001 (at node 5)
Minimum injected flit rate = 0 (at node 0)
Average injected flit rate = 5.23438e-05
Maximum injected flit rate = 0.00075 (at node 14)
Minimum accepted flit rate = 0 (at node 0)
Average accepted flit rate = 3.67188e-05
Maximum accepted flit rate = 0.0007 (at node 61)
Total number of injected packets = 16
Total number of injected flits = 67
Average injected packet length = 4.1875
Total number of accepted packets = 10
Total number of accepted flits = 47
Average accepted packet length = 4.7
Total in-flight flits = 26 (0 measured)
===== Time: 30000 =====
Class 0:
Packets read from trace = 159 of 100000000 (0%)
Future packets = 1
Waiting packets = 0
Stalled packets = 133
Packets pending injection = 7
Packets in flight = 8
Minimum packet latency = 36
Average packet latency = 1133.5
Maximum packet latency = 4483
Minimum network latency = 36
Average network latency = 1132.4
Maximum network latency = 4479
Slowest packet = 8
Minimum flit latency = 30
Average flit latency = 357.894
Maximum flit latency = 4467
Slowest flit = 32
Minimum fragmentation = 0
Average fragmentation = 1061.1
Maximum fragmentation = 4412
Minimum injected packet rate = 0 (at node 0)
Average injected packet rate = 8.85417e-06
Maximum injected packet rate = 0.0001 (at node 14)
Minimum accepted packet rate = 0 (at node 0)
Average accepted packet rate = 5.20833e-06
Maximum accepted packet rate = 6.66667e-05 (at node 5)
Minimum injected flit rate = 0 (at node 0)
Average injected flit rate = 3.69792e-05
Maximum injected flit rate = 0.0005 (at node 14)
Minimum accepted flit rate = 0 (at node 0)
Average accepted flit rate = 2.44792e-05
Maximum accepted flit rate = 0.000466667 (at node 61)
Total number of injected packets = 17
Total number of injected flits = 71
Average injected packet length = 4.17647
Total number of accepted packets = 10
Total number of accepted flits = 47
Average accepted packet length = 4.7
Total in-flight flits = 31 (0 measured)
Warmup ends after 30000 cycles.
Beginning measurements...
===== Time: 40000 =====
Class 0:
Packets read from trace = 259 of 100000000 (0%)
Future packets = 1
Waiting packets = 0
Stalled packets = 221
Packets pending injection = 12
Packets in flight = 9
Minimum packet latency = 53
Average packet latency = 92.4
Maximum packet latency = 135
Minimum network latency = 50
Average network latency = 90
Maximum network latency = 132
Slowest packet = 20
Minimum flit latency = 29
Average flit latency = 2103.38
Maximum flit latency = 23332
Slowest flit = 41
Minimum fragmentation = 14
Average fragmentation = 54
Maximum fragmentation = 93
Minimum injected packet rate = 0 (at node 0)
Average injected packet rate = 1.09375e-05
Maximum injected packet rate = 0.0006 (at node 26)
Minimum accepted packet rate = 0 (at node 0)
Average accepted packet rate = 9.375e-06
Maximum accepted packet rate = 0.0005 (at node 16)
Minimum injected flit rate = 0 (at node 0)
Average injected flit rate = 5.46875e-05
Maximum injected flit rate = 0.003 (at node 26)
Minimum accepted flit rate = 0 (at node 0)
Average accepted flit rate = 5.3125e-05
Maximum accepted flit rate = 0.0028 (at node 16)
Total number of injected packets = 7
Total number of injected flits = 35
Average injected packet length = 5
Total number of accepted packets = 6
Total number of accepted flits = 34
Average accepted packet length = 5.66667
Total in-flight flits = 32 (4 measured)
===== Time: 50000 =====
Class 0:
Packets read from trace = 299 of 100000000 (0%)
Future packets = 1
Waiting packets = 0
Stalled packets = 252
Packets pending injection = 12
Packets in flight = 9
Minimum packet latency = 53
Average packet latency = 3302.89
Maximum packet latency = 14270
Minimum network latency = 38
Average network latency = 3298.78
Maximum network latency = 14267
Slowest packet = 18
Minimum flit latency = 29
Average flit latency = 8111.69
Maximum flit latency = 40041
Slowest flit = 6
Minimum fragmentation = 0
Average fragmentation = 3255.22
Maximum fragmentation = 14165
Minimum injected packet rate = 0 (at node 0)
Average injected packet rate = 1.25e-05
Maximum injected packet rate = 0.0004 (at node 26)
Minimum accepted packet rate = 0 (at node 0)
Average accepted packet rate = 1.17188e-05
Maximum accepted packet rate = 0.00035 (at node 16)
Minimum injected flit rate = 0 (at node 0)
Average injected flit rate = 6.01563e-05
Maximum injected flit rate = 0.002 (at node 26)
Minimum accepted flit rate = 0 (at node 0)
Average accepted flit rate = 6.32812e-05
Maximum accepted flit rate = 0.00195 (at node 16)
Total number of injected packets = 16
Total number of injected flits = 77
Average injected packet length = 4.8125
Total number of accepted packets = 15
Total number of accepted flits = 81
Average accepted packet length = 5.4
Total in-flight flits = 26 (16 measured)
===== Time: 60000 =====
Class 0:
Packets read from trace = 341 of 100000000 (0%)
Future packets = 1
Waiting packets = 0
Stalled packets = 286
Packets pending injection = 16
Packets in flight = 8
Minimum packet latency = 53
Average packet latency = 6393.08
Maximum packet latency = 14270
Minimum network latency = 38
Average network latency = 6389.46
Maximum network latency = 14267
Slowest packet = 18
Minimum flit latency = 29
Average flit latency = 10208.8
Maximum flit latency = 44210
Slowest flit = 66
Minimum fragmentation = 0
Average fragmentation = 6192.85
Maximum fragmentation = 14165
Minimum injected packet rate = 0 (at node 0)
Average injected packet rate = 1.09375e-05
Maximum injected packet rate = 0.000266667 (at node 26)
Minimum accepted packet rate = 0 (at node 0)
Average accepted packet rate = 1.04167e-05
Maximum accepted packet rate = 0.000266667 (at node 16)
Minimum injected flit rate = 0 (at node 0)
Average injected flit rate = 5.05208e-05
Maximum injected flit rate = 0.00133333 (at node 26)
Minimum accepted flit rate = 0 (at node 0)
Average accepted flit rate = 5.3125e-05
Maximum accepted flit rate = 0.00133333 (at node 16)
Total number of injected packets = 21
Total number of injected flits = 97
Average injected packet length = 4.61905
Total number of accepted packets = 20
Total number of accepted flits = 102
Average accepted packet length = 5.1
Total in-flight flits = 21 (19 measured)
===== Time: 70000 =====
Class 0:
Packets read from trace = 409 of 100000000 (0%)
Future packets = 1
Waiting packets = 0
Stalled packets = 342
Packets pending injection = 20
Packets in flight = 13
Minimum packet latency = 42
Average packet latency = 8896.53
Maximum packet latency = 50296
Minimum network latency = 38
Average network latency = 6142.87
Maximum network latency = 14267
Slowest packet = 18
Minimum flit latency = 29
Average flit latency = 9272.42
Maximum flit latency = 44210
Slowest flit = 66
Minimum fragmentation = 0
Average fragmentation = 5380.87
Maximum fragmentation = 14165
Minimum injected packet rate = 0 (at node 0)
Average injected packet rate = 1.09375e-05
Maximum injected packet rate = 0.00025 (at node 26)
Minimum accepted packet rate = 0 (at node 0)
Average accepted packet rate = 8.98437e-06
Maximum accepted packet rate = 0.000225 (at node 16)
Minimum injected flit rate = 0 (at node 0)
Average injected flit rate = 5.11719e-05
Maximum injected flit rate = 0.001225 (at node 26)
Minimum accepted flit rate = 0 (at node 0)
Average accepted flit rate = 4.72656e-05
Maximum accepted flit rate = 0.001125 (at node 16)
Total number of injected packets = 28
Total number of injected flits = 131
Average injected packet length = 4.67857
Total number of accepted packets = 23
Total number of accepted flits = 121
Average accepted packet length = 5.26087
Total in-flight flits = 42 (42 measured)
===== Time: 80000 =====
Class 0:
Packets read from trace = 449 of 100000000 (0%)
Future packets = 1
Waiting packets = 0
Stalled packets = 381
Packets pending injection = 20
Packets in flight = 14
Minimum packet latency = 42
Average packet latency = 8896.53
Maximum packet latency = 50296
Minimum network latency = 38
Average network latency = 6142.87
Maximum network latency = 14267
Slowest packet = 18
Minimum flit latency = 29
Average flit latency = 9272.42
Maximum flit latency = 44210
Slowest flit = 66
Minimum fragmentation = 0
Average fragmentation = 5380.87
Maximum fragmentation = 14165
Minimum injected packet rate = 0 (at node 0)
Average injected packet rate = 9.0625e-06
Maximum injected packet rate = 0.0002 (at node 26)
Minimum accepted packet rate = 0 (at node 0)
Average accepted packet rate = 7.1875e-06
Maximum accepted packet rate = 0.00018 (at node 16)
Minimum injected flit rate = 0 (at node 0)
Average injected flit rate = 4.25e-05
Maximum injected flit rate = 0.00098 (at node 26)
Minimum accepted flit rate = 0 (at node 0)
Average accepted flit rate = 3.78125e-05
Maximum accepted flit rate = 0.0009 (at node 16)
Total number of injected packets = 29
Total number of injected flits = 136
Average injected packet length = 4.68966
Total number of accepted packets = 23
Total number of accepted flits = 121
Average accepted packet length = 5.26087
Total in-flight flits = 47 (47 measured)
===== Time: 90000 =====
Class 0:
Packets read from trace = 479 of 100000000 (0%)
Future packets = 1
Waiting packets = 0
Stalled packets = 407
Packets pending injection = 17
Packets in flight = 19
Minimum packet latency = 42
Average packet latency = 16312.4
Maximum packet latency = 77549
Minimum network latency = 38
Average network latency = 9047
Maximum network latency = 42407
Slowest packet = 18
Minimum flit latency = 29
Average flit latency = 10337.7
Maximum flit latency = 44210
Slowest flit = 66
Minimum fragmentation = 0
Average fragmentation = 7515.53
Maximum fragmentation = 28057
Minimum injected packet rate = 0 (at node 0)
Average injected packet rate = 9.375e-06
Maximum injected packet rate = 0.000166667 (at node 26)
Minimum accepted packet rate = 0 (at node 0)
Average accepted packet rate = 6.51042e-06
Maximum accepted packet rate = 0.00015 (at node 16)
Minimum injected flit rate = 0 (at node 0)
Average injected flit rate = 4.42708e-05
Maximum injected flit rate = 0.000816667 (at node 26)
Minimum accepted flit rate = 0 (at node 0)
Average accepted flit rate = 3.54167e-05
Maximum accepted flit rate = 0.00075 (at node 16)
Total number of injected packets = 36
Total number of injected flits = 170
Average injected packet length = 4.72222
Total number of accepted packets = 25
Total number of accepted flits = 136
Average accepted packet length = 5.44
Total in-flight flits = 67 (67 measured)
===== Time: 100000 =====
Class 0:
Packets read from trace = 504 of 100000000 (0%)
Future packets = 1
Waiting packets = 0
Stalled packets = 430
Packets pending injection = 19
Packets in flight = 19
Minimum packet latency = 42
Average packet latency = 16312.4
Maximum packet latency = 77549
Minimum network latency = 38
Average network latency = 9047
Maximum network latency = 42407
Slowest packet = 18
Minimum flit latency = 29
Average flit latency = 10337.7
Maximum flit latency = 44210
Slowest flit = 66
Minimum fragmentation = 0
Average fragmentation = 7515.53
Maximum fragmentation = 28057
Minimum injected packet rate = 0 (at node 0)
Average injected packet rate = 8.03571e-06
Maximum injected packet rate = 0.000142857 (at node 26)
Minimum accepted packet rate = 0 (at node 0)
Average accepted packet rate = 5.58036e-06
Maximum accepted packet rate = 0.000128571 (at node 16)
Minimum injected flit rate = 0 (at node 0)
Average injected flit rate = 3.79464e-05
Maximum injected flit rate = 0.0007 (at node 26)
Minimum accepted flit rate = 0 (at node 0)
Average accepted flit rate = 3.03571e-05
Maximum accepted flit rate = 0.000642857 (at node 16)
Total number of injected packets = 36
Total number of injected flits = 170
Average injected packet length = 4.72222
Total number of accepted packets = 25
Total number of accepted flits = 136
Average accepted packet length = 5.44
Total in-flight flits = 67 (67 measured)
===== Time: 110000 =====
Class 0:
Packets read from trace = 595 of 100000000 (0%)
Future packets = 1
Waiting packets = 0
Stalled packets = 509
Packets pending injection = 30
Packets in flight = 20
Minimum packet latency = 42
Average packet latency = 16312.4
Maximum packet latency = 77549
Minimum network latency = 38
Average network latency = 9047
Maximum network latency = 42407
Slowest packet = 18
Minimum flit latency = 29
Average flit latency = 10337.7
Maximum flit latency = 44210
Slowest flit = 66
Minimum fragmentation = 0
Average fragmentation = 7515.53
Maximum fragmentation = 28057
Minimum injected packet rate = 0 (at node 0)
Average injected packet rate = 7.03125e-06
Maximum injected packet rate = 0.000125 (at node 26)
Minimum accepted packet rate = 0 (at node 0)
Average accepted packet rate = 4.88281e-06
Maximum accepted packet rate = 0.0001125 (at node 16)
Minimum injected flit rate = 0 (at node 0)
Average injected flit rate = 3.32031e-05
Maximum injected flit rate = 0.0006125 (at node 26)
Minimum accepted flit rate = 0 (at node 0)
Average accepted flit rate = 2.65625e-05
Maximum accepted flit rate = 0.0005625 (at node 16)
Total number of injected packets = 36
Total number of injected flits = 170
Average injected packet length = 4.72222
Total number of accepted packets = 25
Total number of accepted flits = 136
Average accepted packet length = 5.44
Total in-flight flits = 72 (72 measured)
===== Time: 120000 =====
Class 0:
Packets read from trace = 624 of 100000000 (0%)
Future packets = 1
Waiting packets = 0
Stalled packets = 534
Packets pending injection = 34
Packets in flight = 20
Minimum packet latency = 42
Average packet latency = 16312.4
Maximum packet latency = 77549
Minimum network latency = 38
Average network latency = 9047
Maximum network latency = 42407
Slowest packet = 18
Minimum flit latency = 29
Average flit latency = 10337.7
Maximum flit latency = 44210
Slowest flit = 66
Minimum fragmentation = 0
Average fragmentation = 7515.53
Maximum fragmentation = 28057
Minimum injected packet rate = 0 (at node 0)
Average injected packet rate = 6.25e-06
Maximum injected packet rate = 0.000111111 (at node 26)
Minimum accepted packet rate = 0 (at node 0)
Average accepted packet rate = 4.34028e-06
Maximum accepted packet rate = 0.0001 (at node 16)
Minimum injected flit rate = 0 (at node 0)
Average injected flit rate = 2.95139e-05
Maximum injected flit rate = 0.000544444 (at node 26)
Minimum accepted flit rate = 0 (at node 0)
Average accepted flit rate = 2.36111e-05
Maximum accepted flit rate = 0.0005 (at node 16)
Total number of injected packets = 36
Total number of injected flits = 170
Average injected packet length = 4.72222
Total number of accepted packets = 25
Total number of accepted flits = 136
Average accepted packet length = 5.44
Total in-flight flits = 72 (72 measured)
===== Time: 130000 =====
Class 0:
Packets read from trace = 669 of 100000000 (0%)
Future packets = 1
Waiting packets = 0
Stalled packets = 575
Packets pending injection = 38
Packets in flight = 20
Minimum packet latency = 42
Average packet latency = 16312.4
Maximum packet latency = 77549
Minimum network latency = 38
Average network latency = 9047
Maximum network latency = 42407
Slowest packet = 18
Minimum flit latency = 29
Average flit latency = 10337.7
Maximum flit latency = 44210
Slowest flit = 66
Minimum fragmentation = 0
Average fragmentation = 7515.53
Maximum fragmentation = 28057
Minimum injected packet rate = 0 (at node 0)
Average injected packet rate = 5.625e-06
Maximum injected packet rate = 0.0001 (at node 26)
Minimum accepted packet rate = 0 (at node 0)
Average accepted packet rate = 3.90625e-06
Maximum accepted packet rate = 9e-05 (at node 16)
Minimum injected flit rate = 0 (at node 0)
Average injected flit rate = 2.65625e-05
Maximum injected flit rate = 0.00049 (at node 26)
Minimum accepted flit rate = 0 (at node 0)
Average accepted flit rate = 2.125e-05
Maximum accepted flit rate = 0.00045 (at node 16)
Total number of injected packets = 36
Total number of injected flits = 170
Average injected packet length = 4.72222
Total number of accepted packets = 25
Total number of accepted flits = 136
Average accepted packet length = 5.44
Total in-flight flits = 72 (72 measured)
Completed measurements after 130000 cycles.
Draining remaining packets ...
Class 0:
Remaining flits: 127 157 158 159 160 161 162 163 168 169 [...] (71 flits)
Measured flits: 127 157 158 159 160 161 162 163 168 169 [...] (71 flits)
Class 0:
Remaining flits: 127 157 158 159 160 161 162 163 168 169 [...] (71 flits)
Measured flits: 127 157 158 159 160 161 162 163 168 169 [...] (71 flits)
Class 0:
Remaining flits: 159 160 161 162 163 169 170 171 172 173 [...] (60 flits)
Measured flits: 159 160 161 162 163 169 170 171 172 173 [...] (60 flits)
Class 0:
Remaining flits: 159 160 161 162 163 170 171 172 173 174 [...] (56 flits)
Measured flits: 159 160 161 162 163 170 171 172 173 174 [...] (56 flits)
Class 0:
Remaining flits: 159 160 161 162 163 170 171 172 173 174 [...] (56 flits)
Measured flits: 159 160 161 162 163 170 171 172 173 174 [...] (56 flits)
Class 0:
Remaining flits: 159 160 161 162 163 170 171 172 173 174 [...] (56 flits)
Measured flits: 159 160 161 162 163 170 171 172 173 174 [...] (56 flits)
Class 0:
Remaining flits: 159 160 161 162 163 189 195 196 197 198 [...] (45 flits)
Measured flits: 159 160 161 162 163 189 195 196 197 198 [...] (45 flits)
Class 0:
Remaining flits: 189 195 196 197 198 199 205 206 207 208 [...] (36 flits)
Measured flits: 189 195 196 197 198 199 205 206 207 208 [...] (36 flits)
Class 0:
Remaining flits: 189 195 196 197 198 199 205 206 207 208 [...] (36 flits)
Measured flits: 189 195 196 197 198 199 205 206 207 208 [...] (36 flits)
Class 0:
Remaining flits: 189 195 196 197 198 199 205 206 207 208 [...] (32 flits)
Measured flits: 189 195 196 197 198 199 205 206 207 208 [...] (32 flits)
Class 0:
Remaining flits: 189 195 196 197 198 199 209 210 211 212 [...] (26 flits)
Measured flits: 189 195 196 197 198 199 209 210 211 212 [...] (26 flits)
Class 0:
Remaining flits: 189 195 196 197 198 199 210 211 212 213 [...] (21 flits)
Measured flits: 189 195 196 197 198 199 210 211 212 213 [...] (21 flits)
Class 0:
Remaining flits: 189 195 196 197 198 199 210 211 212 213 [...] (21 flits)
Measured flits: 189 195 196 197 198 199 210 211 212 213 [...] (21 flits)
Class 0:
Remaining flits: 189 195 196 197 198 199 210 211 212 213 [...] (18 flits)
Measured flits: 189 195 196 197 198 199 210 211 212 213 [...] (18 flits)
Class 0:
Remaining flits: 189 195 196 197 198 199 210 211 212 213 [...] (16 flits)
Measured flits: 189 195 196 197 198 199 210 211 212 213 [...] (16 flits)
Class 0:
Remaining flits: 189 195 196 197 198 199 210 211 212 213 [...] (16 flits)
Measured flits: 189 195 196 197 198 199 210 211 212 213 [...] (16 flits)
Class 0:
Remaining flits: 189 195 196 197 198 199 212 213 214 250 [...] (14 flits)
Measured flits: 189 195 196 197 198 199 212 213 214 250 [...] (14 flits)
Class 0:
Remaining flits: 189 195 196 197 198 199 250 251 252 253 [...] (11 flits)
Measured flits: 189 195 196 197 198 199 250 251 252 253 [...] (11 flits)
Class 0:
Remaining flits: 189 195 196 197 198 199 250 251 252 253 [...] (11 flits)
Measured flits: 189 195 196 197 198 199 250 251 252 253 [...] (11 flits)
Class 0:
Remaining flits: 189 195 196 197 198 199 251 252 253 254 (10 flits)
Measured flits: 189 195 196 197 198 199 251 252 253 254 (10 flits)
Class 0:
Remaining flits: 189 195 196 197 198 199 (6 flits)
Measured flits: 189 195 196 197 198 199 (6 flits)
Class 0:
Remaining flits: 189 195 196 197 198 199 (6 flits)
Measured flits: 189 195 196 197 198 199 (6 flits)
Class 0:
Remaining flits: 189 195 196 197 198 199 (6 flits)
Measured flits: 189 195 196 197 198 199 (6 flits)
Class 0:
Remaining flits: 189 195 196 197 198 199 (6 flits)
Measured flits: 189 195 196 197 198 199 (6 flits)
Class 0:
Remaining flits: 189 195 196 197 198 199 (6 flits)
Measured flits: 189 195 196 197 198 199 (6 flits)
Class 0:
Remaining flits: 189 195 196 197 198 199 (6 flits)
Measured flits: 189 195 196 197 198 199 (6 flits)
Class 0:
Remaining flits: 189 195 196 197 198 199 (6 flits)
Measured flits: 189 195 196 197 198 199 (6 flits)
Class 0:
Remaining flits: 189 195 196 197 198 199 (6 flits)
Measured flits: 189 195 196 197 198 199 (6 flits)
Class 0:
Remaining flits: 189 195 196 197 198 199 (6 flits)
Measured flits: 189 195 196 197 198 199 (6 flits)
Class 0:
Remaining flits: 189 195 196 197 198 199 (6 flits)
Measured flits: 189 195 196 197 198 199 (6 flits)
Class 0:
Remaining flits: 189 195 196 197 198 199 (6 flits)
Measured flits: 189 195 196 197 198 199 (6 flits)
Class 0:
Remaining flits: 189 195 196 197 198 199 (6 flits)
Measured flits: 189 195 196 197 198 199 (6 flits)
Class 0:
Remaining flits: 189 195 196 197 198 199 (6 flits)
Measured flits: 189 195 196 197 198 199 (6 flits)
Class 0:
Remaining flits: 189 195 196 197 198 199 (6 flits)
Measured flits: 189 195 196 197 198 199 (6 flits)
Class 0:
Remaining flits: 189 195 196 197 198 199 (6 flits)
Measured flits: 189 195 196 197 198 199 (6 flits)
Class 0:
Remaining flits: 189 195 196 197 198 199 (6 flits)
Measured flits: 189 195 196 197 198 199 (6 flits)
Class 0:
Remaining flits: 189 195 196 197 198 199 (6 flits)
Measured flits: 189 195 196 197 198 199 (6 flits)
Class 0:
Remaining flits: 189 195 196 197 198 199 (6 flits)
Measured flits: 189 195 196 197 198 199 (6 flits)
Class 0:
Remaining flits: 189 195 196 197 198 199 (6 flits)
Measured flits: 189 195 196 197 198 199 (6 flits)
Class 0:
Remaining flits: 189 195 196 197 198 199 (6 flits)
Measured flits: 189 195 196 197 198 199 (6 flits)
Class 0:
Remaining flits: 189 195 196 197 198 199 (6 flits)
Measured flits: 189 195 196 197 198 199 (6 flits)
Class 0:
Remaining flits: 189 195 196 197 198 199 (6 flits)
Measured flits: 189 195 196 197 198 199 (6 flits)
Class 0:
Remaining flits: 189 195 196 197 198 199 (6 flits)
Measured flits: 189 195 196 197 198 199 (6 flits)
Class 0:
Remaining flits: 189 195 196 197 198 199 (6 flits)
Measured flits: 189 195 196 197 198 199 (6 flits)
Class 0:
Remaining flits: 189 195 196 197 198 199 (6 flits)
Measured flits: 189 195 196 197 198 199 (6 flits)
Class 0:
Remaining flits: 189 195 196 197 198 199 (6 flits)
Measured flits: 189 195 196 197 198 199 (6 flits)
Class 0:
Remaining flits: 189 195 196 197 198 199 (6 flits)
Measured flits: 189 195 196 197 198 199 (6 flits)
Class 0:
Remaining flits: 189 195 196 197 198 199 (6 flits)
Measured flits: 189 195 196 197 198 199 (6 flits)
Class 0:
Remaining flits: 189 195 196 197 198 199 (6 flits)
Measured flits: 189 195 196 197 198 199 (6 flits)
Class 0:
Remaining flits: 189 195 196 197 198 199 (6 flits)
Measured flits: 189 195 196 197 198 199 (6 flits)
Class 0:
Remaining flits: 189 195 196 197 198 199 (6 flits)
Measured flits: 189 195 196 197 198 199 (6 flits)
Class 0:
Remaining flits: 189 195 196 197 198 199 (6 flits)
Measured flits: 189 195 196 197 198 199 (6 flits)
Class 0:
Remaining flits: 189 195 196 197 198 199 (6 flits)
Measured flits: 189 195 196 197 198 199 (6 flits)
Class 0:
Remaining flits: 189 195 196 197 198 199 (6 flits)
Measured flits: 189 195 196 197 198 199 (6 flits)
Class 0:
Remaining flits: 189 195 196 197 198 199 (6 flits)
Measured flits: 189 195 196 197 198 199 (6 flits)
Class 0:
Remaining flits: 189 195 196 197 198 199 (6 flits)
Measured flits: 189 195 196 197 198 199 (6 flits)
Class 0:
Remaining flits: 189 195 196 197 198 199 (6 flits)
Measured flits: 189 195 196 197 198 199 (6 flits)
Class 0:
Remaining flits: 189 195 196 197 198 199 (6 flits)
Measured flits: 189 195 196 197 198 199 (6 flits)
Class 0:
Remaining flits: 189 195 196 197 198 199 (6 flits)
Measured flits: 189 195 196 197 198 199 (6 flits)
Class 0:
Remaining flits: 189 195 196 197 198 199 (6 flits)
Measured flits: 189 195 196 197 198 199 (6 flits)
Class 0:
Remaining flits: 189 195 196 197 198 199 (6 flits)
Measured flits: 189 195 196 197 198 199 (6 flits)
Class 0:
Remaining flits: 189 195 196 197 198 199 (6 flits)
Measured flits: 189 195 196 197 198 199 (6 flits)
Class 0:
Remaining flits: 189 195 196 197 198 199 (6 flits)
Measured flits: 189 195 196 197 198 199 (6 flits)
Class 0:
Remaining flits: 189 195 196 197 198 199 (6 flits)
Measured flits: 189 195 196 197 198 199 (6 flits)
Class 0:
Remaining flits: 189 195 196 197 198 199 (6 flits)
Measured flits: 189 195 196 197 198 199 (6 flits)
Class 0:
Remaining flits: 189 195 196 197 198 199 (6 flits)
Measured flits: 189 195 196 197 198 199 (6 flits)
Class 0:
Remaining flits: 189 195 196 197 198 199 (6 flits)
Measured flits: 189 195 196 197 198 199 (6 flits)
Class 0:
Remaining flits: 189 195 196 197 198 199 (6 flits)
Measured flits: 189 195 196 197 198 199 (6 flits)
Class 0:
Remaining flits: 189 195 196 197 198 199 (6 flits)
Measured flits: 189 195 196 197 198 199 (6 flits)
Class 0:
Remaining flits: 189 195 196 197 198 199 (6 flits)
Measured flits: 189 195 196 197 198 199 (6 flits)
Class 0:
Remaining flits: 189 195 196 197 198 199 (6 flits)
Measured flits: 189 195 196 197 198 199 (6 flits)
Class 0:
Remaining flits: 189 195 196 197 198 199 (6 flits)
Measured flits: 189 195 196 197 198 199 (6 flits)
Class 0:
Remaining flits: 189 195 196 197 198 199 (6 flits)
Measured flits: 189 195 196 197 198 199 (6 flits)
Class 0:
Remaining flits: 189 195 196 197 198 199 (6 flits)
Measured flits: 189 195 196 197 198 199 (6 flits)
Class 0:
Remaining flits: 189 195 196 197 198 199 (6 flits)
Measured flits: 189 195 196 197 198 199 (6 flits)
Class 0:
Remaining flits: 189 195 196 197 198 199 (6 flits)
Measured flits: 189 195 196 197 198 199 (6 flits)
Class 0:
Remaining flits: 189 195 196 197 198 199 (6 flits)
Measured flits: 189 195 196 197 198 199 (6 flits)
Class 0:
Remaining flits: 189 195 196 197 198 199 (6 flits)
Measured flits: 189 195 196 197 198 199 (6 flits)
Class 0:
Remaining flits: 189 195 196 197 198 199 (6 flits)
Measured flits: 189 195 196 197 198 199 (6 flits)
Class 0:
Remaining flits: 189 195 196 197 198 199 (6 flits)
Measured flits: 189 195 196 197 198 199 (6 flits)
Class 0:
Remaining flits: 189 195 196 197 198 199 (6 flits)
Measured flits: 189 195 196 197 198 199 (6 flits)
Class 0:
Remaining flits: 189 195 196 197 198 199 (6 flits)
Measured flits: 189 195 196 197 198 199 (6 flits)
Class 0:
Remaining flits: 189 195 196 197 198 199 (6 flits)
Measured flits: 189 195 196 197 198 199 (6 flits)
Class 0:
Remaining flits: 189 195 196 197 198 199 (6 flits)
Measured flits: 189 195 196 197 198 199 (6 flits)
Class 0:
Remaining flits: 189 195 196 197 198 199 (6 flits)
Measured flits: 189 195 196 197 198 199 (6 flits)
Class 0:
Remaining flits: 189 195 196 197 198 199 (6 flits)
Measured flits: 189 195 196 197 198 199 (6 flits)
Class 0:
Remaining flits: 189 195 196 197 198 199 (6 flits)
Measured flits: 189 195 196 197 198 199 (6 flits)
Class 0:
Remaining flits: 189 195 196 197 198 199 (6 flits)
Measured flits: 189 195 196 197 198 199 (6 flits)
Class 0:
Remaining flits: 189 195 196 197 198 199 (6 flits)
Measured flits: 189 195 196 197 198 199 (6 flits)
Class 0:
Remaining flits: 189 195 196 197 198 199 (6 flits)
Measured flits: 189 195 196 197 198 199 (6 flits)
Class 0:
Remaining flits: 189 195 196 197 198 199 (6 flits)
Measured flits: 189 195 196 197 198 199 (6 flits)
Class 0:
Remaining flits: 189 195 196 197 198 199 (6 flits)
Measured flits: 189 195 196 197 198 199 (6 flits)
Class 0:
Remaining flits: 189 195 196 197 198 199 (6 flits)
Measured flits: 189 195 196 197 198 199 (6 flits)
Class 0:
Remaining flits: 189 195 196 197 198 199 (6 flits)
Measured flits: 189 195 196 197 198 199 (6 flits)
Class 0:
Remaining flits: 189 195 196 197 198 199 (6 flits)
Measured flits: 189 195 196 197 198 199 (6 flits)
Class 0:
Remaining flits: 189 195 196 197 198 199 (6 flits)
Measured flits: 189 195 196 197 198 199 (6 flits)
Class 0:
Remaining flits: 189 195 196 197 198 199 (6 flits)
Measured flits: 189 195 196 197 198 199 (6 flits)
Class 0:
Remaining flits: 189 195 196 197 198 199 (6 flits)
Measured flits: 189 195 196 197 198 199 (6 flits)
Class 0:
Remaining flits: 189 195 196 197 198 199 (6 flits)
Measured flits: 189 195 196 197 198 199 (6 flits)
Class 0:
Remaining flits: 189 195 196 197 198 199 (6 flits)
Measured flits: 189 195 196 197 198 199 (6 flits)
Class 0:
Remaining flits: 189 195 196 197 198 199 (6 flits)
Measured flits: 189 195 196 197 198 199 (6 flits)
Time taken is 131000 cycles
====== Traffic class 0 ======

Total number of flits generated = 255, changed lanes = 0
Overall minimum packet latency = 42 (1 samples)
Overall average packet latency = 45904.8 (1 samples)
Overall maximum packet latency = 117996 (1 samples)
Overall minimum network latency = 38 (1 samples)
Overall average network latency = 30492.6 (1 samples)
Overall maximum network latency = 85480 (1 samples)
Overall minimum flit latency = 29 (1 samples)
Overall average flit latency = 20542.7 (1 samples)
Overall maximum flit latency = 85473 (1 samples)
Overall minimum fragmentation = 0 (1 samples)
Overall average fragmentation = 13052.7 (1 samples)
Overall maximum fragmentation = 85433 (1 samples)
Overall minimum injected packet rate = 0 (1 samples)
Overall average injected packet rate = 5.625e-06 (1 samples)
Overall maximum injected packet rate = 0.0001 (1 samples)
Overall minimum accepted packet rate = 0 (1 samples)
Overall average accepted packet rate = 3.90625e-06 (1 samples)
Overall maximum accepted packet rate = 9e-05 (1 samples)
Overall minimum injected flit rate = 0 (1 samples)
Overall average injected flit rate = 2.65625e-05 (1 samples)
Overall maximum injected flit rate = 0.00049 (1 samples)
Overall minimum accepted flit rate = 0 (1 samples)
Overall average accepted flit rate = 2.125e-05 (1 samples)
Overall maximum accepted flit rate = 0.00045 (1 samples)
Overall average injected packet size = 4.72222 (1 samples)
Overall average accepted packet size = 5.44 (1 samples)
Overall average hops = 6.94286 (1 samples)
Overall throughput of the network (flits/cycle) = 0.00249
Overall throughput of the network (packets/cycle) = 0.00053
Overall workload runtime = 100000 (1 samples)

The distribution of the source packets of size 1 is: 

Source [0] = 0
Source [1] = 0
Source [2] = 3
Source [3] = 0
Source [4] = 0
Source [5] = 0
Source [6] = 0
Source [7] = 0
Source [8] = 0
Source [9] = 0
Source [10] = 0
Source [11] = 0
Source [12] = 0
Source [13] = 0
Source [14] = 0
Source [15] = 0
Source [16] = 0
Source [17] = 0
Source [18] = 0
Source [19] = 0
Source [20] = 1
Source [21] = 0
Source [22] = 0
Source [23] = 0
Source [24] = 0
Source [25] = 0
Source [26] = 0
Source [27] = 0
Source [28] = 0
Source [29] = 0
Source [30] = 0
Source [31] = 0
Source [32] = 0
Source [33] = 0
Source [34] = 0
Source [35] = 0
Source [36] = 0
Source [37] = 0
Source [38] = 0
Source [39] = 0
Source [40] = 1
Source [41] = 0
Source [42] = 0
Source [43] = 0
Source [44] = 0
Source [45] = 0
Source [46] = 0
Source [47] = 0
Source [48] = 0
Source [49] = 0
Source [50] = 0
Source [51] = 0
Source [52] = 0
Source [53] = 0
Source [54] = 0
Source [55] = 0
Source [56] = 0
Source [57] = 0
Source [58] = 0
Source [59] = 0
Source [60] = 0
Source [61] = 0
Source [62] = 0
Source [63] = 0
The distribution of the source packets of size 5 is: 

Source [0] = 0
Source [1] = 0
Source [2] = 2
Source [3] = 0
Source [4] = 0
Source [5] = 0
Source [6] = 0
Source [7] = 0
Source [8] = 0
Source [9] = 0
Source [10] = 0
Source [11] = 0
Source [12] = 0
Source [13] = 0
Source [14] = 9
Source [15] = 0
Source [16] = 0
Source [17] = 0
Source [18] = 0
Source [19] = 0
Source [20] = 2
Source [21] = 0
Source [22] = 4
Source [23] = 7
Source [24] = 9
Source [25] = 5
Source [26] = 11
Source [27] = 0
Source [28] = 1
Source [29] = 0
Source [30] = 0
Source [31] = 0
Source [32] = 0
Source [33] = 0
Source [34] = 0
Source [35] = 0
Source [36] = 0
Source [37] = 0
Source [38] = 0
Source [39] = 0
Source [40] = 0
Source [41] = 0
Source [42] = 0
Source [43] = 0
Source [44] = 0
Source [45] = 0
Source [46] = 0
Source [47] = 0
Source [48] = 0
Source [49] = 0
Source [50] = 0
Source [51] = 0
Source [52] = 0
Source [53] = 0
Source [54] = 0
Source [55] = 0
Source [56] = 0
Source [57] = 0
Source [58] = 0
Source [59] = 0
Source [60] = 0
Source [61] = 0
Source [62] = 0
Source [63] = 0
The distribution of the dest packets of size 1 is: 

dest [0] = 0
dest [1] = 0
dest [2] = 0
dest [3] = 0
dest [4] = 0
dest [5] = 0
dest [6] = 0
dest [7] = 0
dest [8] = 0
dest [9] = 0
dest [10] = 0
dest [11] = 0
dest [12] = 0
dest [13] = 0
dest [14] = 0
dest [15] = 0
dest [16] = 0
dest [17] = 0
dest [18] = 0
dest [19] = 0
dest [20] = 4
dest [21] = 0
dest [22] = 0
dest [23] = 0
dest [24] = 0
dest [25] = 0
dest [26] = 0
dest [27] = 0
dest [28] = 0
dest [29] = 0
dest [30] = 0
dest [31] = 0
dest [32] = 0
dest [33] = 0
dest [34] = 0
dest [35] = 0
dest [36] = 0
dest [37] = 0
dest [38] = 0
dest [39] = 0
dest [40] = 1
dest [41] = 0
dest [42] = 0
dest [43] = 0
dest [44] = 0
dest [45] = 0
dest [46] = 0
dest [47] = 0
dest [48] = 0
dest [49] = 0
dest [50] = 0
dest [51] = 0
dest [52] = 0
dest [53] = 0
dest [54] = 0
dest [55] = 0
dest [56] = 0
dest [57] = 0
dest [58] = 0
dest [59] = 0
dest [60] = 0
dest [61] = 0
dest [62] = 0
dest [63] = 0
The distribution of the dest packets of size 5 is: 

dest [0] = 0
dest [1] = 0
dest [2] = 11
dest [3] = 0
dest [4] = 0
dest [5] = 5
dest [6] = 0
dest [7] = 0
dest [8] = 0
dest [9] = 0
dest [10] = 0
dest [11] = 0
dest [12] = 0
dest [13] = 0
dest [14] = 1
dest [15] = 0
dest [16] = 11
dest [17] = 0
dest [18] = 0
dest [19] = 0
dest [20] = 0
dest [21] = 0
dest [22] = 0
dest [23] = 0
dest [24] = 1
dest [25] = 0
dest [26] = 0
dest [27] = 0
dest [28] = 0
dest [29] = 0
dest [30] = 0
dest [31] = 0
dest [32] = 0
dest [33] = 0
dest [34] = 0
dest [35] = 0
dest [36] = 0
dest [37] = 0
dest [38] = 0
dest [39] = 0
dest [40] = 1
dest [41] = 0
dest [42] = 0
dest [43] = 0
dest [44] = 0
dest [45] = 0
dest [46] = 0
dest [47] = 0
dest [48] = 0
dest [49] = 0
dest [50] = 0
dest [51] = 0
dest [52] = 0
dest [53] = 0
dest [54] = 0
dest [55] = 0
dest [56] = 0
dest [57] = 0
dest [58] = 13
dest [59] = 0
dest [60] = 0
dest [61] = 7
dest [62] = 0
dest [63] = 0Total run time 552.627
