make: Nothing to be done for 'all'.
Master: Running timer....
Master: Running SRC....
BEGIN Configuration File: ./examples/mesh88_lat_blackscholes
// $Id$

topology = mesh;
k = 8;
n = 2;

// Routing
routing_function = planar_adapt;

// Flow control
num_vcs     = 1;
vc_buf_size = 4;
wait_for_tail_credit = 1;

// Router architecture
vc_allocator = islip;
sw_allocator = islip;
alloc_iters  = 1;

credit_delay   = 1;
routing_delay  = 1;
vc_alloc_delay = 1;
sw_alloc_delay = 1;

input_speedup     = 1;
output_speedup    = 1;
internal_speedup  = 1.0;

vc_busy_when_full = 0;

// Traffic
workload=netrace({/home/sarab/Downloads/BookSim_Benchmark_files/fluidanimate_64c_simsmall.tra.bz2,100000000,1,2,1,1,0);

// Simulation
sim_type = workload;

END Configuration File: ./examples/mesh88_lat_blackscholes
Warming up...
===== Time: 10000 =====
Class 0:
Packets read from trace = 160 of 20989170 (0%)
Future packets = 1
Waiting packets = 0
Stalled packets = 135
Packets pending injection = 7
Packets in flight = 9
Minimum packet latency = 68
Average packet latency = 779.25
Maximum packet latency = 1836
Minimum network latency = 68
Average network latency = 778.875
Maximum network latency = 1836
Slowest packet = 14
Minimum flit latency = 29
Average flit latency = 354
Maximum flit latency = 1829
Slowest flit = 62
Minimum fragmentation = 0
Average fragmentation = 655.25
Maximum fragmentation = 1796
Minimum injected packet rate = 0 (at node 0)
Average injected packet rate = 2.5e-05
Maximum injected packet rate = 0.0004 (at node 6)
Minimum accepted packet rate = 0 (at node 0)
Average accepted packet rate = 1.25e-05
Maximum accepted packet rate = 0.0003 (at node 58)
Minimum injected flit rate = 0 (at node 0)
Average injected flit rate = 0.000103125
Maximum injected flit rate = 0.0019 (at node 6)
Minimum accepted flit rate = 0 (at node 0)
Average accepted flit rate = 5.9375e-05
Maximum accepted flit rate = 0.0015 (at node 58)
Total number of injected packets = 16
Total number of injected flits = 66
Average injected packet length = 4.125
Total number of accepted packets = 8
Total number of accepted flits = 38
Average accepted packet length = 4.75
Total in-flight flits = 35 (0 measured)
===== Time: 20000 =====
Class 0:
Packets read from trace = 313 of 20989170 (0%)
Future packets = 1
Waiting packets = 0
Stalled packets = 272
Packets pending injection = 16
Packets in flight = 13
Minimum packet latency = 68
Average packet latency = 2687.55
Maximum packet latency = 13834
Minimum network latency = 68
Average network latency = 2687
Maximum network latency = 13834
Slowest packet = 3
Minimum flit latency = 29
Average flit latency = 2071.96
Maximum flit latency = 13826
Slowest flit = 7
Minimum fragmentation = 0
Average fragmentation = 2318.18
Maximum fragmentation = 13740
Minimum injected packet rate = 0 (at node 0)
Average injected packet rate = 1.79687e-05
Maximum injected packet rate = 0.00025 (at node 2)
Minimum accepted packet rate = 0 (at node 0)
Average accepted packet rate = 8.59375e-06
Maximum accepted packet rate = 0.00015 (at node 16)
Minimum injected flit rate = 0 (at node 0)
Average injected flit rate = 7.5e-05
Maximum injected flit rate = 0.00095 (at node 6)
Minimum accepted flit rate = 0 (at node 0)
Average accepted flit rate = 4.29687e-05
Maximum accepted flit rate = 0.00075 (at node 16)
Total number of injected packets = 23
Total number of injected flits = 96
Average injected packet length = 4.17391
Total number of accepted packets = 11
Total number of accepted flits = 55
Average accepted packet length = 5
Total in-flight flits = 49 (0 measured)
===== Time: 30000 =====
Class 0:
Packets read from trace = 463 of 20989170 (0%)
Future packets = 1
Waiting packets = 0
Stalled packets = 406
Packets pending injection = 29
Packets in flight = 16
Minimum packet latency = 68
Average packet latency = 2687.55
Maximum packet latency = 13834
Minimum network latency = 68
Average network latency = 2687
Maximum network latency = 13834
Slowest packet = 3
Minimum flit latency = 29
Average flit latency = 2071.96
Maximum flit latency = 13826
Slowest flit = 7
Minimum fragmentation = 0
Average fragmentation = 2318.18
Maximum fragmentation = 13740
Minimum injected packet rate = 0 (at node 0)
Average injected packet rate = 1.30208e-05
Maximum injected packet rate = 0.000166667 (at node 2)
Minimum accepted packet rate = 0 (at node 0)
Average accepted packet rate = 5.72917e-06
Maximum accepted packet rate = 0.0001 (at node 16)
Minimum injected flit rate = 0 (at node 0)
Average injected flit rate = 5.46875e-05
Maximum injected flit rate = 0.000633333 (at node 6)
Minimum accepted flit rate = 0 (at node 0)
Average accepted flit rate = 2.86458e-05
Maximum accepted flit rate = 0.0005 (at node 16)
Total number of injected packets = 25
Total number of injected flits = 105
Average injected packet length = 4.2
Total number of accepted packets = 11
Total number of accepted flits = 55
Average accepted packet length = 5
Total in-flight flits = 64 (0 measured)
Warmup ends after 30000 cycles.
Beginning measurements...
===== Time: 40000 =====
Class 0:
Packets read from trace = 611 of 20989170 (0%)
Future packets = 1
Waiting packets = 0
Stalled packets = 540
Packets pending injection = 30
Packets in flight = 25
Minimum packet latency = 6473
Average packet latency = 6473
Maximum packet latency = 6473
Minimum network latency = 6473
Average network latency = 6473
Maximum network latency = 6473
Slowest packet = 27
Minimum flit latency = 64
Average flit latency = 15512.3
Maximum flit latency = 31953
Slowest flit = 49
Minimum fragmentation = 6405
Average fragmentation = 6405
Maximum fragmentation = 6405
Minimum injected packet rate = 0 (at node 0)
Average injected packet rate = 2.03125e-05
Maximum injected packet rate = 0.0003 (at node 3)
Minimum accepted packet rate = 0 (at node 0)
Average accepted packet rate = 6.25e-06
Maximum accepted packet rate = 0.0001 (at node 2)
Minimum injected flit rate = 0 (at node 0)
Average injected flit rate = 9.6875e-05
Maximum injected flit rate = 0.0014 (at node 3)
Minimum accepted flit rate = 0 (at node 0)
Average accepted flit rate = 3.59375e-05
Maximum accepted flit rate = 0.0005 (at node 2)
Total number of injected packets = 13
Total number of injected flits = 62
Average injected packet length = 4.76923
Total number of accepted packets = 4
Total number of accepted flits = 23
Average accepted packet length = 5.75
Total in-flight flits = 106 (56 measured)
===== Time: 50000 =====
Class 0:
Packets read from trace = 754 of 20989170 (0%)
Future packets = 1
Waiting packets = 1
Stalled packets = 671
Packets pending injection = 35
Packets in flight = 29
Minimum packet latency = 6473
Average packet latency = 6473
Maximum packet latency = 6473
Minimum network latency = 6473
Average network latency = 6473
Maximum network latency = 6473
Slowest packet = 27
Minimum flit latency = 64
Average flit latency = 18530.5
Maximum flit latency = 38808
Slowest flit = 38
Minimum fragmentation = 6405
Average fragmentation = 6405
Maximum fragmentation = 6405
Minimum injected packet rate = 0 (at node 0)
Average injected packet rate = 1.40625e-05
Maximum injected packet rate = 0.00015 (at node 3)
Minimum accepted packet rate = 0 (at node 0)
Average accepted packet rate = 4.6875e-06
Maximum accepted packet rate = 0.0001 (at node 2)
Minimum injected flit rate = 0 (at node 0)
Average injected flit rate = 6.95312e-05
Maximum injected flit rate = 0.00075 (at node 51)
Minimum accepted flit rate = 0 (at node 0)
Average accepted flit rate = 2.73438e-05
Maximum accepted flit rate = 0.0005 (at node 58)
Total number of injected packets = 18
Total number of injected flits = 89
Average injected packet length = 4.94444
Total number of accepted packets = 6
Total number of accepted flits = 35
Average accepted packet length = 5.83333
Total in-flight flits = 124 (83 measured)
===== Time: 60000 =====
Class 0:
Packets read from trace = 891 of 20989170 (0%)
Future packets = 1
Waiting packets = 0
Stalled packets = 796
Packets pending injection = 41
Packets in flight = 33
Minimum packet latency = 2212
Average packet latency = 10955.2
Maximum packet latency = 22926
Minimum network latency = 2212
Average network latency = 10955.2
Maximum network latency = 22926
Slowest packet = 31
Minimum flit latency = 64
Average flit latency = 15040.8
Maximum flit latency = 38808
Slowest flit = 38
Minimum fragmentation = 13
Average fragmentation = 6416
Maximum fragmentation = 17164
Minimum injected packet rate = 0 (at node 0)
Average injected packet rate = 1.30208e-05
Maximum injected packet rate = 0.0001 (at node 3)
Minimum accepted packet rate = 0 (at node 0)
Average accepted packet rate = 4.6875e-06
Maximum accepted packet rate = 6.66667e-05 (at node 2)
Minimum injected flit rate = 0 (at node 0)
Average injected flit rate = 6.40625e-05
Maximum injected flit rate = 0.0005 (at node 51)
Minimum accepted flit rate = 0 (at node 0)
Average accepted flit rate = 2.96875e-05
Maximum accepted flit rate = 0.000466667 (at node 23)
Total number of injected packets = 25
Total number of injected flits = 123
Average injected packet length = 4.92
Total number of accepted packets = 9
Total number of accepted flits = 57
Average accepted packet length = 6.33333
Total in-flight flits = 137 (96 measured)
===== Time: 70000 =====
Class 0:
Packets read from trace = 1020 of 20989170 (0%)
Future packets = 1
Waiting packets = 0
Stalled packets = 920
Packets pending injection = 44
Packets in flight = 35
Minimum packet latency = 2212
Average packet latency = 10955.2
Maximum packet latency = 22926
Minimum network latency = 2212
Average network latency = 10955.2
Maximum network latency = 22926
Slowest packet = 31
Minimum flit latency = 64
Average flit latency = 15040.8
Maximum flit latency = 38808
Slowest flit = 38
Minimum fragmentation = 13
Average fragmentation = 6416
Maximum fragmentation = 17164
Minimum injected packet rate = 0 (at node 0)
Average injected packet rate = 1.05469e-05
Maximum injected packet rate = 7.5e-05 (at node 3)
Minimum accepted packet rate = 0 (at node 0)
Average accepted packet rate = 3.51562e-06
Maximum accepted packet rate = 5e-05 (at node 2)
Minimum injected flit rate = 0 (at node 0)
Average injected flit rate = 5.19531e-05
Maximum injected flit rate = 0.000375 (at node 51)
Minimum accepted flit rate = 0 (at node 0)
Average accepted flit rate = 2.22656e-05
Maximum accepted flit rate = 0.00035 (at node 23)
Total number of injected packets = 27
Total number of injected flits = 133
Average injected packet length = 4.92593
Total number of accepted packets = 9
Total number of accepted flits = 57
Average accepted packet length = 6.33333
Total in-flight flits = 147 (106 measured)
===== Time: 80000 =====
Class 0:
Packets read from trace = 1208 of 20989170 (0%)
Future packets = 1
Waiting packets = 0
Stalled packets = 1098
Packets pending injection = 50
Packets in flight = 38
Minimum packet latency = 2212
Average packet latency = 10955.2
Maximum packet latency = 22926
Minimum network latency = 2212
Average network latency = 10955.2
Maximum network latency = 22926
Slowest packet = 31
Minimum flit latency = 64
Average flit latency = 18763.6
Maximum flit latency = 72270
Slowest flit = 41
Minimum fragmentation = 13
Average fragmentation = 6416
Maximum fragmentation = 17164
Minimum injected packet rate = 0 (at node 0)
Average injected packet rate = 1e-05
Maximum injected packet rate = 6e-05 (at node 3)
Minimum accepted packet rate = 0 (at node 0)
Average accepted packet rate = 3.125e-06
Maximum accepted packet rate = 6e-05 (at node 2)
Minimum injected flit rate = 0 (at node 0)
Average injected flit rate = 4.84375e-05
Maximum injected flit rate = 0.0003 (at node 51)
Minimum accepted flit rate = 0 (at node 0)
Average accepted flit rate = 1.96875e-05
Maximum accepted flit rate = 0.0003 (at node 2)
Total number of injected packets = 32
Total number of injected flits = 155
Average injected packet length = 4.84375
Total number of accepted packets = 10
Total number of accepted flits = 63
Average accepted packet length = 6.3
Total in-flight flits = 161 (126 measured)
===== Time: 90000 =====
Class 0:
Packets read from trace = 1238 of 20989170 (0%)
Future packets = 1
Waiting packets = 0
Stalled packets = 1128
Packets pending injection = 50
Packets in flight = 38
Minimum packet latency = 2212
Average packet latency = 10955.2
Maximum packet latency = 22926
Minimum network latency = 2212
Average network latency = 10955.2
Maximum network latency = 22926
Slowest packet = 31
Minimum flit latency = 64
Average flit latency = 18763.6
Maximum flit latency = 72270
Slowest flit = 41
Minimum fragmentation = 13
Average fragmentation = 6416
Maximum fragmentation = 17164
Minimum injected packet rate = 0 (at node 0)
Average injected packet rate = 8.33333e-06
Maximum injected packet rate = 5e-05 (at node 3)
Minimum accepted packet rate = 0 (at node 0)
Average accepted packet rate = 2.60417e-06
Maximum accepted packet rate = 5e-05 (at node 2)
Minimum injected flit rate = 0 (at node 0)
Average injected flit rate = 4.03646e-05
Maximum injected flit rate = 0.00025 (at node 51)
Minimum accepted flit rate = 0 (at node 0)
Average accepted flit rate = 1.64062e-05
Maximum accepted flit rate = 0.00025 (at node 2)
Total number of injected packets = 32
Total number of injected flits = 155
Average injected packet length = 4.84375
Total number of accepted packets = 10
Total number of accepted flits = 63
Average accepted packet length = 6.3
Total in-flight flits = 161 (126 measured)
===== Time: 100000 =====
Class 0:
Packets read from trace = 1252 of 20989170 (0%)
Future packets = 1
Waiting packets = 0
Stalled packets = 1142
Packets pending injection = 50
Packets in flight = 38
Minimum packet latency = 2212
Average packet latency = 10955.2
Maximum packet latency = 22926
Minimum network latency = 2212
Average network latency = 10955.2
Maximum network latency = 22926
Slowest packet = 31
Minimum flit latency = 64
Average flit latency = 18763.6
Maximum flit latency = 72270
Slowest flit = 41
Minimum fragmentation = 13
Average fragmentation = 6416
Maximum fragmentation = 17164
Minimum injected packet rate = 0 (at node 0)
Average injected packet rate = 7.14286e-06
Maximum injected packet rate = 4.28571e-05 (at node 3)
Minimum accepted packet rate = 0 (at node 0)
Average accepted packet rate = 2.23214e-06
Maximum accepted packet rate = 4.28571e-05 (at node 2)
Minimum injected flit rate = 0 (at node 0)
Average injected flit rate = 3.45982e-05
Maximum injected flit rate = 0.000214286 (at node 51)
Minimum accepted flit rate = 0 (at node 0)
Average accepted flit rate = 1.40625e-05
Maximum accepted flit rate = 0.000214286 (at node 2)
Total number of injected packets = 32
Total number of injected flits = 155
Average injected packet length = 4.84375
Total number of accepted packets = 10
Total number of accepted flits = 63
Average accepted packet length = 6.3
Total in-flight flits = 161 (126 measured)
===== Time: 110000 =====
Class 0:
Packets read from trace = 1280 of 20989170 (0%)
Future packets = 1
Waiting packets = 0
Stalled packets = 1167
Packets pending injection = 50
Packets in flight = 41
Minimum packet latency = 2212
Average packet latency = 10955.2
Maximum packet latency = 22926
Minimum network latency = 2212
Average network latency = 10955.2
Maximum network latency = 22926
Slowest packet = 31
Minimum flit latency = 64
Average flit latency = 18763.6
Maximum flit latency = 72270
Slowest flit = 41
Minimum fragmentation = 13
Average fragmentation = 6416
Maximum fragmentation = 17164
Minimum injected packet rate = 0 (at node 0)
Average injected packet rate = 6.64062e-06
Maximum injected packet rate = 3.75e-05 (at node 3)
Minimum accepted packet rate = 0 (at node 0)
Average accepted packet rate = 1.95313e-06
Maximum accepted packet rate = 3.75e-05 (at node 2)
Minimum injected flit rate = 0 (at node 0)
Average injected flit rate = 3.22266e-05
Maximum injected flit rate = 0.0001875 (at node 51)
Minimum accepted flit rate = 0 (at node 0)
Average accepted flit rate = 1.23047e-05
Maximum accepted flit rate = 0.0001875 (at node 2)
Total number of injected packets = 34
Total number of injected flits = 165
Average injected packet length = 4.85294
Total number of accepted packets = 10
Total number of accepted flits = 63
Average accepted packet length = 6.3
Total in-flight flits = 176 (141 measured)
===== Time: 120000 =====
Class 0:
Packets read from trace = 1299 of 20989170 (0%)
Future packets = 1
Waiting packets = 0
Stalled packets = 1186
Packets pending injection = 50
Packets in flight = 41
Minimum packet latency = 2212
Average packet latency = 10955.2
Maximum packet latency = 22926
Minimum network latency = 2212
Average network latency = 10955.2
Maximum network latency = 22926
Slowest packet = 31
Minimum flit latency = 64
Average flit latency = 18763.6
Maximum flit latency = 72270
Slowest flit = 41
Minimum fragmentation = 13
Average fragmentation = 6416
Maximum fragmentation = 17164
Minimum injected packet rate = 0 (at node 0)
Average injected packet rate = 5.90278e-06
Maximum injected packet rate = 3.33333e-05 (at node 3)
Minimum accepted packet rate = 0 (at node 0)
Average accepted packet rate = 1.73611e-06
Maximum accepted packet rate = 3.33333e-05 (at node 2)
Minimum injected flit rate = 0 (at node 0)
Average injected flit rate = 2.86458e-05
Maximum injected flit rate = 0.000166667 (at node 51)
Minimum accepted flit rate = 0 (at node 0)
Average accepted flit rate = 1.09375e-05
Maximum accepted flit rate = 0.000166667 (at node 2)
Total number of injected packets = 34
Total number of injected flits = 165
Average injected packet length = 4.85294
Total number of accepted packets = 10
Total number of accepted flits = 63
Average accepted packet length = 6.3
Total in-flight flits = 176 (141 measured)
===== Time: 130000 =====
Class 0:
Packets read from trace = 1319 of 20989170 (0%)
Future packets = 1
Waiting packets = 0
Stalled packets = 1206
Packets pending injection = 50
Packets in flight = 41
Minimum packet latency = 2212
Average packet latency = 10955.2
Maximum packet latency = 22926
Minimum network latency = 2212
Average network latency = 10955.2
Maximum network latency = 22926
Slowest packet = 31
Minimum flit latency = 64
Average flit latency = 18763.6
Maximum flit latency = 72270
Slowest flit = 41
Minimum fragmentation = 13
Average fragmentation = 6416
Maximum fragmentation = 17164
Minimum injected packet rate = 0 (at node 0)
Average injected packet rate = 5.3125e-06
Maximum injected packet rate = 3e-05 (at node 3)
Minimum accepted packet rate = 0 (at node 0)
Average accepted packet rate = 1.5625e-06
Maximum accepted packet rate = 3e-05 (at node 2)
Minimum injected flit rate = 0 (at node 0)
Average injected flit rate = 2.57812e-05
Maximum injected flit rate = 0.00015 (at node 51)
Minimum accepted flit rate = 0 (at node 0)
Average accepted flit rate = 9.84375e-06
Maximum accepted flit rate = 0.00015 (at node 2)
Total number of injected packets = 34
Total number of injected flits = 165
Average injected packet length = 4.85294
Total number of accepted packets = 10
Total number of accepted flits = 63
Average accepted packet length = 6.3
Total in-flight flits = 176 (141 measured)
Completed measurements after 130000 cycles.
Draining remaining packets ...
Class 0:
Remaining flits: 43 44 45 46 47 51 52 57 82 88 [...] (176 flits)
Measured flits: 124 125 126 127 128 129 130 131 132 133 [...] (141 flits)
Class 0:
Remaining flits: 43 44 45 46 47 51 52 57 82 88 [...] (176 flits)
Measured flits: 124 125 126 127 128 129 130 131 132 133 [...] (141 flits)
Class 0:
Remaining flits: 43 44 45 46 47 51 52 57 82 88 [...] (170 flits)
Measured flits: 124 125 126 127 128 129 130 131 132 133 [...] (135 flits)
Class 0:
Remaining flits: 43 44 45 46 47 57 88 94 95 96 [...] (158 flits)
Measured flits: 124 125 126 127 128 129 130 131 132 133 [...] (126 flits)
Class 0:
Remaining flits: 43 44 45 46 47 57 88 94 95 96 [...] (147 flits)
Measured flits: 124 125 126 127 128 129 130 131 132 133 [...] (115 flits)
Class 0:
Remaining flits: 43 44 45 46 47 57 88 99 100 101 [...] (135 flits)
Measured flits: 124 125 126 127 128 129 130 131 132 133 [...] (108 flits)
Class 0:
Remaining flits: 43 44 45 46 47 57 88 99 100 101 [...] (127 flits)
Measured flits: 124 125 126 127 128 129 130 131 132 133 [...] (104 flits)
Class 0:
Remaining flits: 43 44 45 46 47 57 99 100 101 102 [...] (115 flits)
Measured flits: 124 125 126 127 128 129 130 131 132 133 [...] (98 flits)
Class 0:
Remaining flits: 43 44 45 46 47 57 99 100 101 102 [...] (102 flits)
Measured flits: 124 125 126 127 128 129 130 131 132 133 [...] (91 flits)
Class 0:
Remaining flits: 43 44 45 46 47 57 100 101 102 103 [...] (96 flits)
Measured flits: 124 125 126 127 128 131 132 133 134 135 [...] (86 flits)
Class 0:
Remaining flits: 43 44 45 46 47 57 124 125 126 127 [...] (78 flits)
Measured flits: 124 125 126 127 128 134 135 136 137 138 [...] (72 flits)
Class 0:
Remaining flits: 43 44 45 46 47 57 124 125 126 127 [...] (76 flits)
Measured flits: 124 125 126 127 128 134 135 136 137 138 [...] (70 flits)
Class 0:
Remaining flits: 47 57 124 125 126 127 128 136 137 138 [...] (65 flits)
Measured flits: 124 125 126 127 128 136 137 138 164 165 [...] (63 flits)
Class 0:
Remaining flits: 57 124 125 126 127 128 164 165 166 167 [...] (51 flits)
Measured flits: 124 125 126 127 128 164 165 166 167 168 [...] (50 flits)
Class 0:
Remaining flits: 57 124 125 126 127 128 164 165 166 167 [...] (50 flits)
Measured flits: 124 125 126 127 128 164 165 166 167 168 [...] (49 flits)
Class 0:
Remaining flits: 57 124 125 126 127 128 164 165 166 167 [...] (44 flits)
Measured flits: 124 125 126 127 128 164 165 166 167 168 [...] (43 flits)
Class 0:
Remaining flits: 57 124 125 126 127 128 164 165 166 167 [...] (42 flits)
Measured flits: 124 125 126 127 128 164 165 166 167 168 [...] (41 flits)
Class 0:
Remaining flits: 57 126 127 128 164 165 166 167 168 176 [...] (40 flits)
Measured flits: 126 127 128 164 165 166 167 168 176 177 [...] (39 flits)
Class 0:
Remaining flits: 57 164 165 166 167 168 176 177 178 194 [...] (37 flits)
Measured flits: 164 165 166 167 168 176 177 178 194 195 [...] (36 flits)
Class 0:
Remaining flits: 57 164 165 166 167 168 176 177 178 194 [...] (37 flits)
Measured flits: 164 165 166 167 168 176 177 178 194 195 [...] (36 flits)
Class 0:
Remaining flits: 57 165 166 167 168 176 177 178 194 195 [...] (36 flits)
Measured flits: 165 166 167 168 176 177 178 194 195 196 [...] (35 flits)
Class 0:
Remaining flits: 57 176 177 178 194 195 196 197 198 234 [...] (32 flits)
Measured flits: 176 177 178 194 195 196 197 198 234 235 [...] (31 flits)
Class 0:
Remaining flits: 57 176 177 178 194 195 196 197 198 234 [...] (32 flits)
Measured flits: 176 177 178 194 195 196 197 198 234 235 [...] (31 flits)
Class 0:
Remaining flits: 57 176 177 178 194 195 196 197 198 234 [...] (32 flits)
Measured flits: 176 177 178 194 195 196 197 198 234 235 [...] (31 flits)
Class 0:
Remaining flits: 57 176 177 178 194 195 196 197 198 234 [...] (32 flits)
Measured flits: 176 177 178 194 195 196 197 198 234 235 [...] (31 flits)
Class 0:
Remaining flits: 57 176 177 178 194 195 196 197 198 234 [...] (32 flits)
Measured flits: 176 177 178 194 195 196 197 198 234 235 [...] (31 flits)
Class 0:
Remaining flits: 57 176 177 178 194 195 196 197 198 234 [...] (32 flits)
Measured flits: 176 177 178 194 195 196 197 198 234 235 [...] (31 flits)
Class 0:
Remaining flits: 57 176 177 178 194 195 196 197 198 234 [...] (32 flits)
Measured flits: 176 177 178 194 195 196 197 198 234 235 [...] (31 flits)
Class 0:
Remaining flits: 57 176 177 178 194 195 196 197 198 234 [...] (32 flits)
Measured flits: 176 177 178 194 195 196 197 198 234 235 [...] (31 flits)
Class 0:
Remaining flits: 57 176 177 178 194 195 196 197 198 234 [...] (32 flits)
Measured flits: 176 177 178 194 195 196 197 198 234 235 [...] (31 flits)
Class 0:
Remaining flits: 57 176 177 178 194 195 196 197 198 234 [...] (32 flits)
Measured flits: 176 177 178 194 195 196 197 198 234 235 [...] (31 flits)
Class 0:
Remaining flits: 57 176 177 178 194 195 196 197 198 234 [...] (32 flits)
Measured flits: 176 177 178 194 195 196 197 198 234 235 [...] (31 flits)
Class 0:
Remaining flits: 57 176 177 178 194 195 196 197 198 234 [...] (32 flits)
Measured flits: 176 177 178 194 195 196 197 198 234 235 [...] (31 flits)
Class 0:
Remaining flits: 57 176 177 178 194 195 196 197 198 234 [...] (32 flits)
Measured flits: 176 177 178 194 195 196 197 198 234 235 [...] (31 flits)
Class 0:
Remaining flits: 57 176 177 178 194 195 196 197 198 234 [...] (32 flits)
Measured flits: 176 177 178 194 195 196 197 198 234 235 [...] (31 flits)
Class 0:
Remaining flits: 57 176 177 178 194 195 196 197 198 234 [...] (32 flits)
Measured flits: 176 177 178 194 195 196 197 198 234 235 [...] (31 flits)
Class 0:
Remaining flits: 57 176 177 178 194 195 196 197 198 234 [...] (32 flits)
Measured flits: 176 177 178 194 195 196 197 198 234 235 [...] (31 flits)
Class 0:
Remaining flits: 57 176 177 178 194 195 196 197 198 234 [...] (32 flits)
Measured flits: 176 177 178 194 195 196 197 198 234 235 [...] (31 flits)
Class 0:
Remaining flits: 57 176 177 178 194 195 196 197 198 234 [...] (32 flits)
Measured flits: 176 177 178 194 195 196 197 198 234 235 [...] (31 flits)
Class 0:
Remaining flits: 57 176 177 178 194 195 196 197 198 234 [...] (32 flits)
Measured flits: 176 177 178 194 195 196 197 198 234 235 [...] (31 flits)
Class 0:
Remaining flits: 57 176 177 178 194 195 196 197 198 234 [...] (32 flits)
Measured flits: 176 177 178 194 195 196 197 198 234 235 [...] (31 flits)
Class 0:
Remaining flits: 57 176 177 178 194 195 196 197 198 234 [...] (32 flits)
Measured flits: 176 177 178 194 195 196 197 198 234 235 [...] (31 flits)
Class 0:
Remaining flits: 57 176 177 178 194 195 196 197 198 234 [...] (32 flits)
Measured flits: 176 177 178 194 195 196 197 198 234 235 [...] (31 flits)
Class 0:
Remaining flits: 57 176 177 178 194 195 196 197 198 234 [...] (32 flits)
Measured flits: 176 177 178 194 195 196 197 198 234 235 [...] (31 flits)
Class 0:
Remaining flits: 57 176 177 178 194 195 196 197 198 234 [...] (32 flits)
Measured flits: 176 177 178 194 195 196 197 198 234 235 [...] (31 flits)
Class 0:
Remaining flits: 57 176 177 178 194 195 196 197 198 234 [...] (32 flits)
Measured flits: 176 177 178 194 195 196 197 198 234 235 [...] (31 flits)
Class 0:
Remaining flits: 57 176 177 178 194 195 196 197 198 234 [...] (32 flits)
Measured flits: 176 177 178 194 195 196 197 198 234 235 [...] (31 flits)
Class 0:
Remaining flits: 57 176 177 178 194 195 196 197 198 234 [...] (32 flits)
Measured flits: 176 177 178 194 195 196 197 198 234 235 [...] (31 flits)
Class 0:
Remaining flits: 57 176 177 178 194 195 196 197 198 234 [...] (32 flits)
Measured flits: 176 177 178 194 195 196 197 198 234 235 [...] (31 flits)
Class 0:
Remaining flits: 57 176 177 178 194 195 196 197 198 234 [...] (32 flits)
Measured flits: 176 177 178 194 195 196 197 198 234 235 [...] (31 flits)
Class 0:
Remaining flits: 57 176 177 178 194 195 196 197 198 234 [...] (32 flits)
Measured flits: 176 177 178 194 195 196 197 198 234 235 [...] (31 flits)
Class 0:
Remaining flits: 57 176 177 178 194 195 196 197 198 234 [...] (32 flits)
Measured flits: 176 177 178 194 195 196 197 198 234 235 [...] (31 flits)
Class 0:
Remaining flits: 57 176 177 178 194 195 196 197 198 234 [...] (32 flits)
Measured flits: 176 177 178 194 195 196 197 198 234 235 [...] (31 flits)
Class 0:
Remaining flits: 57 176 177 178 194 195 196 197 198 234 [...] (32 flits)
Measured flits: 176 177 178 194 195 196 197 198 234 235 [...] (31 flits)
Class 0:
Remaining flits: 57 176 177 178 194 195 196 197 198 234 [...] (32 flits)
Measured flits: 176 177 178 194 195 196 197 198 234 235 [...] (31 flits)
Class 0:
Remaining flits: 57 176 177 178 194 195 196 197 198 234 [...] (32 flits)
Measured flits: 176 177 178 194 195 196 197 198 234 235 [...] (31 flits)
Class 0:
Remaining flits: 57 176 177 178 194 195 196 197 198 234 [...] (32 flits)
Measured flits: 176 177 178 194 195 196 197 198 234 235 [...] (31 flits)
Class 0:
Remaining flits: 57 176 177 178 194 195 196 197 198 234 [...] (32 flits)
Measured flits: 176 177 178 194 195 196 197 198 234 235 [...] (31 flits)
Class 0:
Remaining flits: 57 176 177 178 194 195 196 197 198 234 [...] (32 flits)
Measured flits: 176 177 178 194 195 196 197 198 234 235 [...] (31 flits)
Class 0:
Remaining flits: 57 176 177 178 194 195 196 197 198 234 [...] (32 flits)
Measured flits: 176 177 178 194 195 196 197 198 234 235 [...] (31 flits)
Class 0:
Remaining flits: 57 176 177 178 194 195 196 197 198 234 [...] (32 flits)
Measured flits: 176 177 178 194 195 196 197 198 234 235 [...] (31 flits)
Class 0:
Remaining flits: 57 176 177 178 194 195 196 197 198 234 [...] (32 flits)
Measured flits: 176 177 178 194 195 196 197 198 234 235 [...] (31 flits)
Class 0:
Remaining flits: 57 176 177 178 194 195 196 197 198 234 [...] (32 flits)
Measured flits: 176 177 178 194 195 196 197 198 234 235 [...] (31 flits)
Class 0:
Remaining flits: 57 176 177 178 194 195 196 197 198 234 [...] (32 flits)
Measured flits: 176 177 178 194 195 196 197 198 234 235 [...] (31 flits)
Class 0:
Remaining flits: 57 176 177 178 194 195 196 197 198 234 [...] (32 flits)
Measured flits: 176 177 178 194 195 196 197 198 234 235 [...] (31 flits)
Class 0:
Remaining flits: 57 176 177 178 194 195 196 197 198 234 [...] (32 flits)
Measured flits: 176 177 178 194 195 196 197 198 234 235 [...] (31 flits)
Class 0:
Remaining flits: 57 176 177 178 194 195 196 197 198 234 [...] (32 flits)
Measured flits: 176 177 178 194 195 196 197 198 234 235 [...] (31 flits)
Class 0:
Remaining flits: 57 176 177 178 194 195 196 197 198 234 [...] (32 flits)
Measured flits: 176 177 178 194 195 196 197 198 234 235 [...] (31 flits)
Class 0:
Remaining flits: 57 176 177 178 194 195 196 197 198 234 [...] (32 flits)
Measured flits: 176 177 178 194 195 196 197 198 234 235 [...] (31 flits)
Class 0:
Remaining flits: 57 176 177 178 194 195 196 197 198 234 [...] (32 flits)
Measured flits: 176 177 178 194 195 196 197 198 234 235 [...] (31 flits)
Class 0:
Remaining flits: 57 176 177 178 194 195 196 197 198 234 [...] (32 flits)
Measured flits: 176 177 178 194 195 196 197 198 234 235 [...] (31 flits)
Class 0:
Remaining flits: 57 176 177 178 194 195 196 197 198 234 [...] (32 flits)
Measured flits: 176 177 178 194 195 196 197 198 234 235 [...] (31 flits)
Class 0:
Remaining flits: 57 176 177 178 194 195 196 197 198 234 [...] (32 flits)
Measured flits: 176 177 178 194 195 196 197 198 234 235 [...] (31 flits)
Class 0:
Remaining flits: 57 176 177 178 194 195 196 197 198 234 [...] (32 flits)
Measured flits: 176 177 178 194 195 196 197 198 234 235 [...] (31 flits)
Class 0:
Remaining flits: 57 176 177 178 194 195 196 197 198 234 [...] (32 flits)
Measured flits: 176 177 178 194 195 196 197 198 234 235 [...] (31 flits)
Class 0:
Remaining flits: 57 176 177 178 194 195 196 197 198 234 [...] (32 flits)
Measured flits: 176 177 178 194 195 196 197 198 234 235 [...] (31 flits)
Class 0:
Remaining flits: 57 176 177 178 194 195 196 197 198 234 [...] (32 flits)
Measured flits: 176 177 178 194 195 196 197 198 234 235 [...] (31 flits)
Class 0:
Remaining flits: 57 176 177 178 194 195 196 197 198 234 [...] (32 flits)
Measured flits: 176 177 178 194 195 196 197 198 234 235 [...] (31 flits)
Class 0:
Remaining flits: 57 176 177 178 194 195 196 197 198 234 [...] (32 flits)
Measured flits: 176 177 178 194 195 196 197 198 234 235 [...] (31 flits)
Class 0:
Remaining flits: 57 176 177 178 194 195 196 197 198 234 [...] (32 flits)
Measured flits: 176 177 178 194 195 196 197 198 234 235 [...] (31 flits)
Class 0:
Remaining flits: 57 176 177 178 194 195 196 197 198 234 [...] (32 flits)
Measured flits: 176 177 178 194 195 196 197 198 234 235 [...] (31 flits)
Class 0:
Remaining flits: 57 176 177 178 194 195 196 197 198 234 [...] (32 flits)
Measured flits: 176 177 178 194 195 196 197 198 234 235 [...] (31 flits)
Class 0:
Remaining flits: 57 176 177 178 194 195 196 197 198 234 [...] (32 flits)
Measured flits: 176 177 178 194 195 196 197 198 234 235 [...] (31 flits)
Class 0:
Remaining flits: 57 176 177 178 194 195 196 197 198 234 [...] (32 flits)
Measured flits: 176 177 178 194 195 196 197 198 234 235 [...] (31 flits)
Class 0:
Remaining flits: 57 176 177 178 194 195 196 197 198 234 [...] (32 flits)
Measured flits: 176 177 178 194 195 196 197 198 234 235 [...] (31 flits)
Class 0:
Remaining flits: 57 176 177 178 194 195 196 197 198 234 [...] (32 flits)
Measured flits: 176 177 178 194 195 196 197 198 234 235 [...] (31 flits)
Class 0:
Remaining flits: 57 176 177 178 194 195 196 197 198 234 [...] (32 flits)
Measured flits: 176 177 178 194 195 196 197 198 234 235 [...] (31 flits)
Class 0:
Remaining flits: 57 176 177 178 194 195 196 197 198 234 [...] (32 flits)
Measured flits: 176 177 178 194 195 196 197 198 234 235 [...] (31 flits)
Class 0:
Remaining flits: 57 176 177 178 194 195 196 197 198 234 [...] (32 flits)
Measured flits: 176 177 178 194 195 196 197 198 234 235 [...] (31 flits)
Class 0:
Remaining flits: 57 176 177 178 194 195 196 197 198 234 [...] (32 flits)
Measured flits: 176 177 178 194 195 196 197 198 234 235 [...] (31 flits)
Class 0:
Remaining flits: 57 176 177 178 194 195 196 197 198 234 [...] (32 flits)
Measured flits: 176 177 178 194 195 196 197 198 234 235 [...] (31 flits)
Class 0:
Remaining flits: 57 176 177 178 194 195 196 197 198 234 [...] (32 flits)
Measured flits: 176 177 178 194 195 196 197 198 234 235 [...] (31 flits)
Class 0:
Remaining flits: 57 176 177 178 194 195 196 197 198 234 [...] (32 flits)
Measured flits: 176 177 178 194 195 196 197 198 234 235 [...] (31 flits)
Class 0:
Remaining flits: 57 176 177 178 194 195 196 197 198 234 [...] (32 flits)
Measured flits: 176 177 178 194 195 196 197 198 234 235 [...] (31 flits)
Class 0:
Remaining flits: 57 176 177 178 194 195 196 197 198 234 [...] (32 flits)
Measured flits: 176 177 178 194 195 196 197 198 234 235 [...] (31 flits)
Class 0:
Remaining flits: 57 176 177 178 194 195 196 197 198 234 [...] (32 flits)
Measured flits: 176 177 178 194 195 196 197 198 234 235 [...] (31 flits)
Class 0:
Remaining flits: 57 176 177 178 194 195 196 197 198 234 [...] (32 flits)
Measured flits: 176 177 178 194 195 196 197 198 234 235 [...] (31 flits)
Class 0:
Remaining flits: 57 176 177 178 194 195 196 197 198 234 [...] (32 flits)
Measured flits: 176 177 178 194 195 196 197 198 234 235 [...] (31 flits)
Class 0:
Remaining flits: 57 176 177 178 194 195 196 197 198 234 [...] (32 flits)
Measured flits: 176 177 178 194 195 196 197 198 234 235 [...] (31 flits)
Class 0:
Remaining flits: 57 176 177 178 194 195 196 197 198 234 [...] (32 flits)
Measured flits: 176 177 178 194 195 196 197 198 234 235 [...] (31 flits)
Class 0:
Remaining flits: 57 176 177 178 194 195 196 197 198 234 [...] (32 flits)
Measured flits: 176 177 178 194 195 196 197 198 234 235 [...] (31 flits)
Time taken is 131000 cycles
====== Traffic class 0 ======

Total number of flits generated = 294, changed lanes = 0
Overall minimum packet latency = 2212 (1 samples)
Overall average packet latency = 75390.5 (1 samples)
Overall maximum packet latency = 125635 (1 samples)
Overall minimum network latency = 2212 (1 samples)
Overall average network latency = 70434.5 (1 samples)
Overall maximum network latency = 99460 (1 samples)
Overall minimum flit latency = 42 (1 samples)
Overall average flit latency = 60467.4 (1 samples)
Overall maximum flit latency = 126627 (1 samples)
Overall minimum fragmentation = 3 (1 samples)
Overall average fragmentation = 12689.9 (1 samples)
Overall maximum fragmentation = 88945 (1 samples)
Overall minimum injected packet rate = 0 (1 samples)
Overall average injected packet rate = 5.3125e-06 (1 samples)
Overall maximum injected packet rate = 3e-05 (1 samples)
Overall minimum accepted packet rate = 0 (1 samples)
Overall average accepted packet rate = 1.5625e-06 (1 samples)
Overall maximum accepted packet rate = 3e-05 (1 samples)
Overall minimum injected flit rate = 0 (1 samples)
Overall average injected flit rate = 2.57812e-05 (1 samples)
Overall maximum injected flit rate = 0.00015 (1 samples)
Overall minimum accepted flit rate = 0 (1 samples)
Overall average accepted flit rate = 9.84375e-06 (1 samples)
Overall maximum accepted flit rate = 0.00015 (1 samples)
Overall average injected packet size = 4.85294 (1 samples)
Overall average accepted packet size = 6.3 (1 samples)
Overall average hops = 7.96296 (1 samples)
Overall throughput of the network (flits/cycle) = 0.00262
Overall throughput of the network (packets/cycle) = 0.00053
Overall workload runtime = 100000 (1 samples)

The distribution of the source packets of size 1 is: 

Source [0] = 0
Source [1] = 0
Source [2] = 2
Source [3] = 0
Source [4] = 0
Source [5] = 0
Source [6] = 0
Source [7] = 0
Source [8] = 0
Source [9] = 0
Source [10] = 0
Source [11] = 0
Source [12] = 0
Source [13] = 0
Source [14] = 0
Source [15] = 0
Source [16] = 0
Source [17] = 0
Source [18] = 0
Source [19] = 0
Source [20] = 0
Source [21] = 0
Source [22] = 0
Source [23] = 0
Source [24] = 0
Source [25] = 0
Source [26] = 0
Source [27] = 0
Source [28] = 0
Source [29] = 0
Source [30] = 0
Source [31] = 0
Source [32] = 0
Source [33] = 0
Source [34] = 0
Source [35] = 0
Source [36] = 0
Source [37] = 0
Source [38] = 1
Source [39] = 0
Source [40] = 0
Source [41] = 0
Source [42] = 0
Source [43] = 0
Source [44] = 0
Source [45] = 0
Source [46] = 0
Source [47] = 0
Source [48] = 0
Source [49] = 0
Source [50] = 0
Source [51] = 0
Source [52] = 0
Source [53] = 0
Source [54] = 0
Source [55] = 0
Source [56] = 0
Source [57] = 0
Source [58] = 1
Source [59] = 0
Source [60] = 0
Source [61] = 0
Source [62] = 0
Source [63] = 0
The distribution of the source packets of size 5 is: 

Source [0] = 0
Source [1] = 1
Source [2] = 4
Source [3] = 3
Source [4] = 4
Source [5] = 3
Source [6] = 6
Source [7] = 2
Source [8] = 0
Source [9] = 1
Source [10] = 1
Source [11] = 0
Source [12] = 0
Source [13] = 0
Source [14] = 0
Source [15] = 0
Source [16] = 0
Source [17] = 1
Source [18] = 0
Source [19] = 0
Source [20] = 0
Source [21] = 2
Source [22] = 1
Source [23] = 1
Source [24] = 0
Source [25] = 1
Source [26] = 0
Source [27] = 0
Source [28] = 0
Source [29] = 1
Source [30] = 0
Source [31] = 0
Source [32] = 1
Source [33] = 0
Source [34] = 0
Source [35] = 0
Source [36] = 0
Source [37] = 0
Source [38] = 2
Source [39] = 0
Source [40] = 4
Source [41] = 2
Source [42] = 0
Source [43] = 0
Source [44] = 1
Source [45] = 1
Source [46] = 0
Source [47] = 0
Source [48] = 1
Source [49] = 3
Source [50] = 0
Source [51] = 3
Source [52] = 1
Source [53] = 0
Source [54] = 4
Source [55] = 0
Source [56] = 0
Source [57] = 2
Source [58] = 0
Source [59] = 1
Source [60] = 0
Source [61] = 0
Source [62] = 0
Source [63] = 0
The distribution of the dest packets of size 1 is: 

dest [0] = 0
dest [1] = 0
dest [2] = 0
dest [3] = 0
dest [4] = 0
dest [5] = 0
dest [6] = 0
dest [7] = 0
dest [8] = 0
dest [9] = 0
dest [10] = 0
dest [11] = 0
dest [12] = 0
dest [13] = 0
dest [14] = 0
dest [15] = 0
dest [16] = 0
dest [17] = 0
dest [18] = 0
dest [19] = 0
dest [20] = 0
dest [21] = 0
dest [22] = 0
dest [23] = 0
dest [24] = 0
dest [25] = 0
dest [26] = 0
dest [27] = 0
dest [28] = 0
dest [29] = 0
dest [30] = 0
dest [31] = 0
dest [32] = 0
dest [33] = 0
dest [34] = 0
dest [35] = 0
dest [36] = 0
dest [37] = 0
dest [38] = 2
dest [39] = 0
dest [40] = 1
dest [41] = 0
dest [42] = 0
dest [43] = 0
dest [44] = 0
dest [45] = 0
dest [46] = 0
dest [47] = 0
dest [48] = 0
dest [49] = 0
dest [50] = 0
dest [51] = 0
dest [52] = 0
dest [53] = 0
dest [54] = 0
dest [55] = 0
dest [56] = 0
dest [57] = 0
dest [58] = 1
dest [59] = 0
dest [60] = 0
dest [61] = 0
dest [62] = 0
dest [63] = 0
The distribution of the dest packets of size 5 is: 

dest [0] = 0
dest [1] = 0
dest [2] = 7
dest [3] = 0
dest [4] = 0
dest [5] = 11
dest [6] = 0
dest [7] = 0
dest [8] = 0
dest [9] = 0
dest [10] = 0
dest [11] = 0
dest [12] = 0
dest [13] = 0
dest [14] = 0
dest [15] = 0
dest [16] = 4
dest [17] = 0
dest [18] = 0
dest [19] = 0
dest [20] = 0
dest [21] = 0
dest [22] = 0
dest [23] = 7
dest [24] = 0
dest [25] = 0
dest [26] = 0
dest [27] = 0
dest [28] = 0
dest [29] = 0
dest [30] = 0
dest [31] = 0
dest [32] = 0
dest [33] = 0
dest [34] = 0
dest [35] = 0
dest [36] = 0
dest [37] = 0
dest [38] = 0
dest [39] = 0
dest [40] = 7
dest [41] = 0
dest [42] = 0
dest [43] = 0
dest [44] = 0
dest [45] = 0
dest [46] = 0
dest [47] = 7
dest [48] = 0
dest [49] = 0
dest [50] = 0
dest [51] = 0
dest [52] = 0
dest [53] = 0
dest [54] = 0
dest [55] = 0
dest [56] = 0
dest [57] = 0
dest [58] = 12
dest [59] = 0
dest [60] = 0
dest [61] = 3
dest [62] = 0
dest [63] = 0Total run time 1233.54
