make: Nothing to be done for 'all'.
Master: Running timer....
Master: Running SRC....
BEGIN Configuration File: ./examples/mesh88_lat_blackscholes
// $Id$

topology = mesh;
k = 8;
n = 2;

// Routing
routing_function = planar_adapt;

// Flow control
num_vcs     = 1;
vc_buf_size = 4;
wait_for_tail_credit = 1;

// Router architecture
vc_allocator = islip;
sw_allocator = islip;
alloc_iters  = 1;

credit_delay   = 1;
routing_delay  = 1;
vc_alloc_delay = 1;
sw_alloc_delay = 1;

input_speedup     = 1;
output_speedup    = 1;
internal_speedup  = 1.0;

vc_busy_when_full = 0;

// Traffic
workload=netrace({/home/sarab/Downloads/BookSim_Benchmark_files/x264_64c_simsmall.tra.bz2,100000000,1,2,1,1,0);

// Simulation
sim_type = workload;

END Configuration File: ./examples/mesh88_lat_blackscholes
Warming up...
===== Time: 10000 =====
Class 0:
Packets read from trace = 174 of 31326528 (0%)
Future packets = 1
Waiting packets = 0
Stalled packets = 160
Packets pending injection = 0
Packets in flight = 3
Minimum packet latency = 287
Average packet latency = 1323.5
Maximum packet latency = 4961
Minimum network latency = 283
Average network latency = 1320.8
Maximum network latency = 4957
Slowest packet = 6
Minimum flit latency = 15
Average flit latency = 293.083
Maximum flit latency = 4948
Slowest flit = 34
Minimum fragmentation = 211
Average fragmentation = 1251.4
Maximum fragmentation = 4895
Minimum injected packet rate = 0 (at node 0)
Average injected packet rate = 2.03125e-05
Maximum injected packet rate = 0.0006 (at node 61)
Minimum accepted packet rate = 0 (at node 0)
Average accepted packet rate = 1.5625e-05
Maximum accepted packet rate = 0.0006 (at node 47)
Minimum injected flit rate = 0 (at node 0)
Average injected flit rate = 0.000101562
Maximum injected flit rate = 0.003 (at node 61)
Minimum accepted flit rate = 0 (at node 0)
Average accepted flit rate = 9.375e-05
Maximum accepted flit rate = 0.003 (at node 47)
Total number of injected packets = 13
Total number of injected flits = 65
Average injected packet length = 5
Total number of accepted packets = 10
Total number of accepted flits = 60
Average accepted packet length = 6
Total in-flight flits = 5 (0 measured)
===== Time: 20000 =====
Class 0:
Packets read from trace = 316 of 31326528 (0%)
Future packets = 1
Waiting packets = 0
Stalled packets = 285
Packets pending injection = 6
Packets in flight = 8
Minimum packet latency = 17
Average packet latency = 2576.75
Maximum packet latency = 9534
Minimum network latency = 16
Average network latency = 2574.62
Maximum network latency = 9534
Slowest packet = 8
Minimum flit latency = 15
Average flit latency = 772.138
Maximum flit latency = 9529
Slowest flit = 43
Minimum fragmentation = 0
Average fragmentation = 2510.81
Maximum fragmentation = 9515
Minimum injected packet rate = 0 (at node 3)
Average injected packet rate = 1.875e-05
Maximum injected packet rate = 0.0003 (at node 61)
Minimum accepted packet rate = 0 (at node 0)
Average accepted packet rate = 1.25e-05
Maximum accepted packet rate = 0.0003 (at node 47)
Minimum injected flit rate = 0 (at node 3)
Average injected flit rate = 8.67188e-05
Maximum injected flit rate = 0.0015 (at node 61)
Minimum accepted flit rate = 0 (at node 0)
Average accepted flit rate = 6.79687e-05
Maximum accepted flit rate = 0.0015 (at node 47)
Total number of injected packets = 24
Total number of injected flits = 111
Average injected packet length = 4.625
Total number of accepted packets = 16
Total number of accepted flits = 87
Average accepted packet length = 5.4375
Total in-flight flits = 25 (0 measured)
===== Time: 30000 =====
Class 0:
Packets read from trace = 513 of 31326528 (0%)
Future packets = 1
Waiting packets = 0
Stalled packets = 461
Packets pending injection = 18
Packets in flight = 8
Minimum packet latency = 17
Average packet latency = 2087.64
Maximum packet latency = 9534
Minimum network latency = 16
Average network latency = 2085.16
Maximum network latency = 9534
Slowest packet = 8
Minimum flit latency = 15
Average flit latency = 622.797
Maximum flit latency = 9529
Slowest flit = 43
Minimum fragmentation = 0
Average fragmentation = 2021.88
Maximum fragmentation = 9515
Minimum injected packet rate = 0 (at node 3)
Average injected packet rate = 1.71875e-05
Maximum injected packet rate = 0.0004 (at node 62)
Minimum accepted packet rate = 0 (at node 0)
Average accepted packet rate = 1.30208e-05
Maximum accepted packet rate = 0.000366667 (at node 58)
Minimum injected flit rate = 0 (at node 3)
Average injected flit rate = 8.125e-05
Maximum injected flit rate = 0.002 (at node 62)
Minimum accepted flit rate = 0 (at node 0)
Average accepted flit rate = 6.92708e-05
Maximum accepted flit rate = 0.00196667 (at node 58)
Total number of injected packets = 33
Total number of injected flits = 156
Average injected packet length = 4.72727
Total number of accepted packets = 25
Total number of accepted flits = 133
Average accepted packet length = 5.32
Total in-flight flits = 24 (0 measured)
Warmup ends after 30000 cycles.
Beginning measurements...
===== Time: 40000 =====
Class 0:
Packets read from trace = 696 of 31326528 (0%)
Future packets = 1
Waiting packets = 0
Stalled packets = 630
Packets pending injection = 26
Packets in flight = 9
Minimum packet latency = 538
Average packet latency = 1651.25
Maximum packet latency = 3157
Minimum network latency = 535
Average network latency = 1649
Maximum network latency = 3154
Slowest packet = 37
Minimum flit latency = 34
Average flit latency = 408.6
Maximum flit latency = 3145
Slowest flit = 181
Minimum fragmentation = 497
Average fragmentation = 1610.25
Maximum fragmentation = 3116
Minimum injected packet rate = 0 (at node 0)
Average injected packet rate = 9.375e-06
Maximum injected packet rate = 0.0005 (at node 63)
Minimum accepted packet rate = 0 (at node 0)
Average accepted packet rate = 7.8125e-06
Maximum accepted packet rate = 0.0004 (at node 61)
Minimum injected flit rate = 0 (at node 0)
Average injected flit rate = 4.53125e-05
Maximum injected flit rate = 0.0025 (at node 63)
Minimum accepted flit rate = 0 (at node 0)
Average accepted flit rate = 3.90625e-05
Maximum accepted flit rate = 0.0024 (at node 61)
Total number of injected packets = 6
Total number of injected flits = 29
Average injected packet length = 4.83333
Total number of accepted packets = 5
Total number of accepted flits = 25
Average accepted packet length = 5
Total in-flight flits = 29 (6 measured)
===== Time: 50000 =====
Class 0:
Packets read from trace = 860 of 31326528 (0%)
Future packets = 1
Waiting packets = 0
Stalled packets = 785
Packets pending injection = 33
Packets in flight = 11
Minimum packet latency = 538
Average packet latency = 1651.25
Maximum packet latency = 3157
Minimum network latency = 535
Average network latency = 1649
Maximum network latency = 3154
Slowest packet = 37
Minimum flit latency = 34
Average flit latency = 408.6
Maximum flit latency = 3145
Slowest flit = 181
Minimum fragmentation = 497
Average fragmentation = 1610.25
Maximum fragmentation = 3116
Minimum injected packet rate = 0 (at node 0)
Average injected packet rate = 6.25e-06
Maximum injected packet rate = 0.00025 (at node 63)
Minimum accepted packet rate = 0 (at node 0)
Average accepted packet rate = 3.90625e-06
Maximum accepted packet rate = 0.0002 (at node 61)
Minimum injected flit rate = 0 (at node 0)
Average injected flit rate = 3.04687e-05
Maximum injected flit rate = 0.00125 (at node 63)
Minimum accepted flit rate = 0 (at node 0)
Average accepted flit rate = 1.95313e-05
Maximum accepted flit rate = 0.0012 (at node 61)
Total number of injected packets = 8
Total number of injected flits = 39
Average injected packet length = 4.875
Total number of accepted packets = 5
Total number of accepted flits = 25
Average accepted packet length = 5
Total in-flight flits = 39 (16 measured)
===== Time: 60000 =====
Class 0:
Packets read from trace = 1036 of 31326528 (0%)
Future packets = 1
Waiting packets = 0
Stalled packets = 939
Packets pending injection = 48
Packets in flight = 16
Minimum packet latency = 538
Average packet latency = 3869.8
Maximum packet latency = 12744
Minimum network latency = 535
Average network latency = 3867.4
Maximum network latency = 12741
Slowest packet = 38
Minimum flit latency = 34
Average flit latency = 5939.06
Maximum flit latency = 37155
Slowest flit = 81
Minimum fragmentation = 497
Average fragmentation = 3828.8
Maximum fragmentation = 12703
Minimum injected packet rate = 0 (at node 2)
Average injected packet rate = 6.77083e-06
Maximum injected packet rate = 0.0002 (at node 63)
Minimum accepted packet rate = 0 (at node 0)
Average accepted packet rate = 3.64583e-06
Maximum accepted packet rate = 0.000166667 (at node 61)
Minimum injected flit rate = 0 (at node 2)
Average injected flit rate = 3.22917e-05
Maximum injected flit rate = 0.001 (at node 63)
Minimum accepted flit rate = 0 (at node 0)
Average accepted flit rate = 1.82292e-05
Maximum accepted flit rate = 0.000966667 (at node 61)
Total number of injected packets = 13
Total number of injected flits = 62
Average injected packet length = 4.76923
Total number of accepted packets = 7
Total number of accepted flits = 35
Average accepted packet length = 5
Total in-flight flits = 64 (46 measured)
===== Time: 70000 =====
Class 0:
Packets read from trace = 1173 of 31326528 (0%)
Future packets = 1
Waiting packets = 0
Stalled packets = 1061
Packets pending injection = 61
Packets in flight = 17
Minimum packet latency = 538
Average packet latency = 6128
Maximum packet latency = 17419
Minimum network latency = 535
Average network latency = 6125.5
Maximum network latency = 17416
Slowest packet = 42
Minimum flit latency = 34
Average flit latency = 7318.65
Maximum flit latency = 37155
Slowest flit = 81
Minimum fragmentation = 497
Average fragmentation = 6087
Maximum fragmentation = 17378
Minimum injected packet rate = 0 (at node 2)
Average injected packet rate = 5.85938e-06
Maximum injected packet rate = 0.000175 (at node 63)
Minimum accepted packet rate = 0 (at node 0)
Average accepted packet rate = 3.125e-06
Maximum accepted packet rate = 0.00015 (at node 61)
Minimum injected flit rate = 0 (at node 2)
Average injected flit rate = 2.8125e-05
Maximum injected flit rate = 0.000875 (at node 63)
Minimum accepted flit rate = 0 (at node 0)
Average accepted flit rate = 1.5625e-05
Maximum accepted flit rate = 0.00075 (at node 61)
Total number of injected packets = 15
Total number of injected flits = 72
Average injected packet length = 4.8
Total number of accepted packets = 8
Total number of accepted flits = 40
Average accepted packet length = 5
Total in-flight flits = 69 (51 measured)
===== Time: 80000 =====
Class 0:
Packets read from trace = 1247 of 31326528 (0%)
Future packets = 1
Waiting packets = 1
Stalled packets = 1126
Packets pending injection = 69
Packets in flight = 17
Minimum packet latency = 538
Average packet latency = 6128
Maximum packet latency = 17419
Minimum network latency = 535
Average network latency = 6125.5
Maximum network latency = 17416
Slowest packet = 42
Minimum flit latency = 34
Average flit latency = 7318.65
Maximum flit latency = 37155
Slowest flit = 81
Minimum fragmentation = 497
Average fragmentation = 6087
Maximum fragmentation = 17378
Minimum injected packet rate = 0 (at node 2)
Average injected packet rate = 4.6875e-06
Maximum injected packet rate = 0.00014 (at node 63)
Minimum accepted packet rate = 0 (at node 0)
Average accepted packet rate = 2.5e-06
Maximum accepted packet rate = 0.00012 (at node 61)
Minimum injected flit rate = 0 (at node 2)
Average injected flit rate = 2.25e-05
Maximum injected flit rate = 0.0007 (at node 63)
Minimum accepted flit rate = 0 (at node 0)
Average accepted flit rate = 1.25e-05
Maximum accepted flit rate = 0.0006 (at node 61)
Total number of injected packets = 15
Total number of injected flits = 72
Average injected packet length = 4.8
Total number of accepted packets = 8
Total number of accepted flits = 40
Average accepted packet length = 5
Total in-flight flits = 69 (51 measured)
===== Time: 90000 =====
Class 0:
Packets read from trace = 1472 of 31326528 (0%)
Future packets = 1
Waiting packets = 0
Stalled packets = 1315
Packets pending injection = 103
Packets in flight = 20
Minimum packet latency = 538
Average packet latency = 6128
Maximum packet latency = 17419
Minimum network latency = 535
Average network latency = 6125.5
Maximum network latency = 17416
Slowest packet = 42
Minimum flit latency = 34
Average flit latency = 6656.7
Maximum flit latency = 37155
Slowest flit = 81
Minimum fragmentation = 497
Average fragmentation = 6087
Maximum fragmentation = 17378
Minimum injected packet rate = 0 (at node 4)
Average injected packet rate = 4.6875e-06
Maximum injected packet rate = 0.000116667 (at node 63)
Minimum accepted packet rate = 0 (at node 0)
Average accepted packet rate = 2.08333e-06
Maximum accepted packet rate = 0.0001 (at node 61)
Minimum injected flit rate = 0 (at node 4)
Average injected flit rate = 2.23958e-05
Maximum injected flit rate = 0.000583333 (at node 63)
Minimum accepted flit rate = 0 (at node 0)
Average accepted flit rate = 1.14583e-05
Maximum accepted flit rate = 0.0005 (at node 61)
Total number of injected packets = 18
Total number of injected flits = 86
Average injected packet length = 4.77778
Total number of accepted packets = 8
Total number of accepted flits = 44
Average accepted packet length = 5.5
Total in-flight flits = 80 (62 measured)
===== Time: 100000 =====
Class 0:
Packets read from trace = 1693 of 31326528 (0%)
Future packets = 1
Waiting packets = 0
Stalled packets = 1502
Packets pending injection = 135
Packets in flight = 22
Minimum packet latency = 538
Average packet latency = 6128
Maximum packet latency = 17419
Minimum network latency = 535
Average network latency = 6125.5
Maximum network latency = 17416
Slowest packet = 42
Minimum flit latency = 34
Average flit latency = 6656.7
Maximum flit latency = 37155
Slowest flit = 81
Minimum fragmentation = 497
Average fragmentation = 6087
Maximum fragmentation = 17378
Minimum injected packet rate = 0 (at node 4)
Average injected packet rate = 4.24107e-06
Maximum injected packet rate = 0.0001 (at node 63)
Minimum accepted packet rate = 0 (at node 0)
Average accepted packet rate = 1.78571e-06
Maximum accepted packet rate = 8.57143e-05 (at node 61)
Minimum injected flit rate = 0 (at node 4)
Average injected flit rate = 2.03125e-05
Maximum injected flit rate = 0.0005 (at node 63)
Minimum accepted flit rate = 0 (at node 0)
Average accepted flit rate = 9.82143e-06
Maximum accepted flit rate = 0.000428571 (at node 61)
Total number of injected packets = 19
Total number of injected flits = 91
Average injected packet length = 4.78947
Total number of accepted packets = 8
Total number of accepted flits = 44
Average accepted packet length = 5.5
Total in-flight flits = 90 (72 measured)
===== Time: 110000 =====
Class 0:
Packets read from trace = 1911 of 31326528 (0%)
Future packets = 1
Waiting packets = 0
Stalled packets = 1693
Packets pending injection = 162
Packets in flight = 22
Minimum packet latency = 538
Average packet latency = 6128
Maximum packet latency = 17419
Minimum network latency = 535
Average network latency = 6125.5
Maximum network latency = 17416
Slowest packet = 42
Minimum flit latency = 34
Average flit latency = 6656.7
Maximum flit latency = 37155
Slowest flit = 81
Minimum fragmentation = 497
Average fragmentation = 6087
Maximum fragmentation = 17378
Minimum injected packet rate = 0 (at node 4)
Average injected packet rate = 3.71094e-06
Maximum injected packet rate = 8.75e-05 (at node 63)
Minimum accepted packet rate = 0 (at node 0)
Average accepted packet rate = 1.5625e-06
Maximum accepted packet rate = 7.5e-05 (at node 61)
Minimum injected flit rate = 0 (at node 4)
Average injected flit rate = 1.77734e-05
Maximum injected flit rate = 0.0004375 (at node 63)
Minimum accepted flit rate = 0 (at node 0)
Average accepted flit rate = 8.59375e-06
Maximum accepted flit rate = 0.000375 (at node 61)
Total number of injected packets = 19
Total number of injected flits = 91
Average injected packet length = 4.78947
Total number of accepted packets = 8
Total number of accepted flits = 44
Average accepted packet length = 5.5
Total in-flight flits = 90 (72 measured)
===== Time: 120000 =====
Class 0:
Packets read from trace = 2079 of 31326528 (0%)
Future packets = 1
Waiting packets = 0
Stalled packets = 1835
Packets pending injection = 188
Packets in flight = 22
Minimum packet latency = 538
Average packet latency = 6128
Maximum packet latency = 17419
Minimum network latency = 535
Average network latency = 6125.5
Maximum network latency = 17416
Slowest packet = 42
Minimum flit latency = 34
Average flit latency = 6656.7
Maximum flit latency = 37155
Slowest flit = 81
Minimum fragmentation = 497
Average fragmentation = 6087
Maximum fragmentation = 17378
Minimum injected packet rate = 0 (at node 4)
Average injected packet rate = 3.29861e-06
Maximum injected packet rate = 7.77778e-05 (at node 63)
Minimum accepted packet rate = 0 (at node 0)
Average accepted packet rate = 1.38889e-06
Maximum accepted packet rate = 6.66667e-05 (at node 61)
Minimum injected flit rate = 0 (at node 4)
Average injected flit rate = 1.57986e-05
Maximum injected flit rate = 0.000388889 (at node 63)
Minimum accepted flit rate = 0 (at node 0)
Average accepted flit rate = 7.63889e-06
Maximum accepted flit rate = 0.000333333 (at node 61)
Total number of injected packets = 19
Total number of injected flits = 91
Average injected packet length = 4.78947
Total number of accepted packets = 8
Total number of accepted flits = 44
Average accepted packet length = 5.5
Total in-flight flits = 90 (72 measured)
===== Time: 130000 =====
Class 0:
Packets read from trace = 2170 of 31326528 (0%)
Future packets = 1
Waiting packets = 0
Stalled packets = 1923
Packets pending injection = 191
Packets in flight = 22
Minimum packet latency = 538
Average packet latency = 6128
Maximum packet latency = 17419
Minimum network latency = 535
Average network latency = 6125.5
Maximum network latency = 17416
Slowest packet = 42
Minimum flit latency = 34
Average flit latency = 6656.7
Maximum flit latency = 37155
Slowest flit = 81
Minimum fragmentation = 497
Average fragmentation = 6087
Maximum fragmentation = 17378
Minimum injected packet rate = 0 (at node 4)
Average injected packet rate = 2.96875e-06
Maximum injected packet rate = 7e-05 (at node 63)
Minimum accepted packet rate = 0 (at node 0)
Average accepted packet rate = 1.25e-06
Maximum accepted packet rate = 6e-05 (at node 61)
Minimum injected flit rate = 0 (at node 4)
Average injected flit rate = 1.42188e-05
Maximum injected flit rate = 0.00035 (at node 63)
Minimum accepted flit rate = 0 (at node 0)
Average accepted flit rate = 6.875e-06
Maximum accepted flit rate = 0.0003 (at node 61)
Total number of injected packets = 19
Total number of injected flits = 91
Average injected packet length = 4.78947
Total number of accepted packets = 8
Total number of accepted flits = 44
Average accepted packet length = 5.5
Total in-flight flits = 90 (72 measured)
Completed measurements after 130000 cycles.
Draining remaining packets ...
Class 0:
Remaining flits: 71 87 88 89 90 91 92 93 94 95 [...] (87 flits)
Measured flits: 167 168 169 170 171 187 188 189 190 191 [...] (71 flits)
Class 0:
Remaining flits: 71 87 88 89 90 91 92 93 94 95 [...] (84 flits)
Measured flits: 167 168 169 170 171 190 191 192 193 194 [...] (68 flits)
Class 0:
Remaining flits: 71 90 91 92 93 94 95 96 97 98 [...] (78 flits)
Measured flits: 167 168 169 170 171 190 191 192 193 194 [...] (65 flits)
Class 0:
Remaining flits: 71 92 93 94 95 96 97 98 99 100 [...] (74 flits)
Measured flits: 167 168 169 170 171 190 191 192 193 194 [...] (63 flits)
Class 0:
Remaining flits: 71 92 93 94 95 96 97 98 99 100 [...] (68 flits)
Measured flits: 167 168 169 170 171 192 193 194 195 196 [...] (57 flits)
Class 0:
Remaining flits: 97 98 99 100 101 167 168 169 170 171 [...] (57 flits)
Measured flits: 167 168 169 170 171 192 193 194 195 196 [...] (52 flits)
Class 0:
Remaining flits: 97 98 99 100 101 167 168 169 170 171 [...] (51 flits)
Measured flits: 167 168 169 170 171 192 193 194 195 196 [...] (46 flits)
Class 0:
Remaining flits: 97 98 99 100 101 167 168 169 170 171 [...] (46 flits)
Measured flits: 167 168 169 170 171 192 193 194 195 196 [...] (41 flits)
Class 0:
Remaining flits: 97 98 99 100 101 167 168 169 170 171 [...] (42 flits)
Measured flits: 167 168 169 170 171 196 211 217 218 219 [...] (37 flits)
Class 0:
Remaining flits: 97 98 99 100 101 167 168 169 170 171 [...] (41 flits)
Measured flits: 167 168 169 170 171 211 217 218 219 220 [...] (36 flits)
Class 0:
Remaining flits: 98 99 100 101 167 168 169 170 171 211 [...] (39 flits)
Measured flits: 167 168 169 170 171 211 218 219 220 221 [...] (35 flits)
Class 0:
Remaining flits: 167 168 169 170 171 211 222 223 224 225 [...] (31 flits)
Measured flits: 167 168 169 170 171 211 222 223 224 225 [...] (31 flits)
Class 0:
Remaining flits: 171 211 226 232 233 234 235 236 237 238 [...] (23 flits)
Measured flits: 171 211 226 232 233 234 235 236 237 238 [...] (23 flits)
Class 0:
Remaining flits: 211 232 233 234 235 236 237 238 239 240 [...] (21 flits)
Measured flits: 211 232 233 234 235 236 237 238 239 240 [...] (21 flits)
Class 0:
Remaining flits: 211 232 233 234 235 236 237 238 239 240 [...] (21 flits)
Measured flits: 211 232 233 234 235 236 237 238 239 240 [...] (21 flits)
Class 0:
Remaining flits: 211 232 233 234 235 236 237 238 239 240 [...] (21 flits)
Measured flits: 211 232 233 234 235 236 237 238 239 240 [...] (21 flits)
Class 0:
Remaining flits: 211 232 233 234 235 236 237 238 239 240 [...] (21 flits)
Measured flits: 211 232 233 234 235 236 237 238 239 240 [...] (21 flits)
Class 0:
Remaining flits: 211 232 233 234 235 236 237 238 239 240 [...] (21 flits)
Measured flits: 211 232 233 234 235 236 237 238 239 240 [...] (21 flits)
Class 0:
Remaining flits: 211 232 233 234 235 236 237 238 239 240 [...] (21 flits)
Measured flits: 211 232 233 234 235 236 237 238 239 240 [...] (21 flits)
Class 0:
Remaining flits: 211 232 233 234 235 236 237 238 239 240 [...] (21 flits)
Measured flits: 211 232 233 234 235 236 237 238 239 240 [...] (21 flits)
Class 0:
Remaining flits: 211 232 233 234 235 236 237 238 239 240 [...] (21 flits)
Measured flits: 211 232 233 234 235 236 237 238 239 240 [...] (21 flits)
Class 0:
Remaining flits: 211 232 233 234 235 236 237 238 239 240 [...] (21 flits)
Measured flits: 211 232 233 234 235 236 237 238 239 240 [...] (21 flits)
Class 0:
Remaining flits: 211 232 233 234 235 236 237 238 239 240 [...] (21 flits)
Measured flits: 211 232 233 234 235 236 237 238 239 240 [...] (21 flits)
Class 0:
Remaining flits: 211 232 233 234 235 236 237 238 239 240 [...] (21 flits)
Measured flits: 211 232 233 234 235 236 237 238 239 240 [...] (21 flits)
Class 0:
Remaining flits: 211 232 233 234 235 236 237 238 239 240 [...] (21 flits)
Measured flits: 211 232 233 234 235 236 237 238 239 240 [...] (21 flits)
Class 0:
Remaining flits: 211 232 233 234 235 236 237 238 239 240 [...] (21 flits)
Measured flits: 211 232 233 234 235 236 237 238 239 240 [...] (21 flits)
Class 0:
Remaining flits: 211 232 233 234 235 236 237 238 239 240 [...] (21 flits)
Measured flits: 211 232 233 234 235 236 237 238 239 240 [...] (21 flits)
Class 0:
Remaining flits: 211 232 233 234 235 236 237 238 239 240 [...] (21 flits)
Measured flits: 211 232 233 234 235 236 237 238 239 240 [...] (21 flits)
Class 0:
Remaining flits: 211 232 233 234 235 236 237 238 239 240 [...] (21 flits)
Measured flits: 211 232 233 234 235 236 237 238 239 240 [...] (21 flits)
Class 0:
Remaining flits: 211 232 233 234 235 236 237 238 239 240 [...] (21 flits)
Measured flits: 211 232 233 234 235 236 237 238 239 240 [...] (21 flits)
Class 0:
Remaining flits: 211 232 233 234 235 236 237 238 239 240 [...] (21 flits)
Measured flits: 211 232 233 234 235 236 237 238 239 240 [...] (21 flits)
Class 0:
Remaining flits: 211 232 233 234 235 236 237 238 239 240 [...] (21 flits)
Measured flits: 211 232 233 234 235 236 237 238 239 240 [...] (21 flits)
Class 0:
Remaining flits: 211 232 233 234 235 236 237 238 239 240 [...] (21 flits)
Measured flits: 211 232 233 234 235 236 237 238 239 240 [...] (21 flits)
Class 0:
Remaining flits: 211 232 233 234 235 236 237 238 239 240 [...] (21 flits)
Measured flits: 211 232 233 234 235 236 237 238 239 240 [...] (21 flits)
Class 0:
Remaining flits: 211 232 233 234 235 236 237 238 239 240 [...] (21 flits)
Measured flits: 211 232 233 234 235 236 237 238 239 240 [...] (21 flits)
Class 0:
Remaining flits: 211 232 233 234 235 236 237 238 239 240 [...] (21 flits)
Measured flits: 211 232 233 234 235 236 237 238 239 240 [...] (21 flits)
Class 0:
Remaining flits: 211 232 233 234 235 236 237 238 239 240 [...] (21 flits)
Measured flits: 211 232 233 234 235 236 237 238 239 240 [...] (21 flits)
Class 0:
Remaining flits: 211 232 233 234 235 236 237 238 239 240 [...] (21 flits)
Measured flits: 211 232 233 234 235 236 237 238 239 240 [...] (21 flits)
Class 0:
Remaining flits: 211 232 233 234 235 236 237 238 239 240 [...] (21 flits)
Measured flits: 211 232 233 234 235 236 237 238 239 240 [...] (21 flits)
Class 0:
Remaining flits: 211 232 233 234 235 236 237 238 239 240 [...] (21 flits)
Measured flits: 211 232 233 234 235 236 237 238 239 240 [...] (21 flits)
Class 0:
Remaining flits: 211 232 233 234 235 236 237 238 239 240 [...] (21 flits)
Measured flits: 211 232 233 234 235 236 237 238 239 240 [...] (21 flits)
Class 0:
Remaining flits: 211 232 233 234 235 236 237 238 239 240 [...] (21 flits)
Measured flits: 211 232 233 234 235 236 237 238 239 240 [...] (21 flits)
Class 0:
Remaining flits: 211 232 233 234 235 236 237 238 239 240 [...] (21 flits)
Measured flits: 211 232 233 234 235 236 237 238 239 240 [...] (21 flits)
Class 0:
Remaining flits: 211 232 233 234 235 236 237 238 239 240 [...] (21 flits)
Measured flits: 211 232 233 234 235 236 237 238 239 240 [...] (21 flits)
Class 0:
Remaining flits: 211 232 233 234 235 236 237 238 239 240 [...] (21 flits)
Measured flits: 211 232 233 234 235 236 237 238 239 240 [...] (21 flits)
Class 0:
Remaining flits: 211 232 233 234 235 236 237 238 239 240 [...] (21 flits)
Measured flits: 211 232 233 234 235 236 237 238 239 240 [...] (21 flits)
Class 0:
Remaining flits: 211 232 233 234 235 236 237 238 239 240 [...] (21 flits)
Measured flits: 211 232 233 234 235 236 237 238 239 240 [...] (21 flits)
Class 0:
Remaining flits: 211 232 233 234 235 236 237 238 239 240 [...] (21 flits)
Measured flits: 211 232 233 234 235 236 237 238 239 240 [...] (21 flits)
Class 0:
Remaining flits: 211 232 233 234 235 236 237 238 239 240 [...] (21 flits)
Measured flits: 211 232 233 234 235 236 237 238 239 240 [...] (21 flits)
Class 0:
Remaining flits: 211 232 233 234 235 236 237 238 239 240 [...] (21 flits)
Measured flits: 211 232 233 234 235 236 237 238 239 240 [...] (21 flits)
Class 0:
Remaining flits: 211 232 233 234 235 236 237 238 239 240 [...] (21 flits)
Measured flits: 211 232 233 234 235 236 237 238 239 240 [...] (21 flits)
Class 0:
Remaining flits: 211 232 233 234 235 236 237 238 239 240 [...] (21 flits)
Measured flits: 211 232 233 234 235 236 237 238 239 240 [...] (21 flits)
Class 0:
Remaining flits: 211 232 233 234 235 236 237 238 239 240 [...] (21 flits)
Measured flits: 211 232 233 234 235 236 237 238 239 240 [...] (21 flits)
Class 0:
Remaining flits: 211 232 233 234 235 236 237 238 239 240 [...] (21 flits)
Measured flits: 211 232 233 234 235 236 237 238 239 240 [...] (21 flits)
Class 0:
Remaining flits: 211 232 233 234 235 236 237 238 239 240 [...] (21 flits)
Measured flits: 211 232 233 234 235 236 237 238 239 240 [...] (21 flits)
Class 0:
Remaining flits: 211 232 233 234 235 236 237 238 239 240 [...] (21 flits)
Measured flits: 211 232 233 234 235 236 237 238 239 240 [...] (21 flits)
Class 0:
Remaining flits: 211 232 233 234 235 236 237 238 239 240 [...] (21 flits)
Measured flits: 211 232 233 234 235 236 237 238 239 240 [...] (21 flits)
Class 0:
Remaining flits: 211 232 233 234 235 236 237 238 239 240 [...] (21 flits)
Measured flits: 211 232 233 234 235 236 237 238 239 240 [...] (21 flits)
Class 0:
Remaining flits: 211 232 233 234 235 236 237 238 239 240 [...] (21 flits)
Measured flits: 211 232 233 234 235 236 237 238 239 240 [...] (21 flits)
Class 0:
Remaining flits: 211 232 233 234 235 236 237 238 239 240 [...] (21 flits)
Measured flits: 211 232 233 234 235 236 237 238 239 240 [...] (21 flits)
Class 0:
Remaining flits: 211 232 233 234 235 236 237 238 239 240 [...] (21 flits)
Measured flits: 211 232 233 234 235 236 237 238 239 240 [...] (21 flits)
Class 0:
Remaining flits: 211 232 233 234 235 236 237 238 239 240 [...] (21 flits)
Measured flits: 211 232 233 234 235 236 237 238 239 240 [...] (21 flits)
Class 0:
Remaining flits: 211 232 233 234 235 236 237 238 239 240 [...] (21 flits)
Measured flits: 211 232 233 234 235 236 237 238 239 240 [...] (21 flits)
Class 0:
Remaining flits: 211 232 233 234 235 236 237 238 239 240 [...] (21 flits)
Measured flits: 211 232 233 234 235 236 237 238 239 240 [...] (21 flits)
Class 0:
Remaining flits: 211 232 233 234 235 236 237 238 239 240 [...] (21 flits)
Measured flits: 211 232 233 234 235 236 237 238 239 240 [...] (21 flits)
Class 0:
Remaining flits: 211 232 233 234 235 236 237 238 239 240 [...] (21 flits)
Measured flits: 211 232 233 234 235 236 237 238 239 240 [...] (21 flits)
Class 0:
Remaining flits: 211 232 233 234 235 236 237 238 239 240 [...] (21 flits)
Measured flits: 211 232 233 234 235 236 237 238 239 240 [...] (21 flits)
Class 0:
Remaining flits: 211 232 233 234 235 236 237 238 239 240 [...] (21 flits)
Measured flits: 211 232 233 234 235 236 237 238 239 240 [...] (21 flits)
Class 0:
Remaining flits: 211 232 233 234 235 236 237 238 239 240 [...] (21 flits)
Measured flits: 211 232 233 234 235 236 237 238 239 240 [...] (21 flits)
Class 0:
Remaining flits: 211 232 233 234 235 236 237 238 239 240 [...] (21 flits)
Measured flits: 211 232 233 234 235 236 237 238 239 240 [...] (21 flits)
Class 0:
Remaining flits: 211 232 233 234 235 236 237 238 239 240 [...] (21 flits)
Measured flits: 211 232 233 234 235 236 237 238 239 240 [...] (21 flits)
Class 0:
Remaining flits: 211 232 233 234 235 236 237 238 239 240 [...] (21 flits)
Measured flits: 211 232 233 234 235 236 237 238 239 240 [...] (21 flits)
Class 0:
Remaining flits: 211 232 233 234 235 236 237 238 239 240 [...] (21 flits)
Measured flits: 211 232 233 234 235 236 237 238 239 240 [...] (21 flits)
Class 0:
Remaining flits: 211 232 233 234 235 236 237 238 239 240 [...] (21 flits)
Measured flits: 211 232 233 234 235 236 237 238 239 240 [...] (21 flits)
Class 0:
Remaining flits: 211 232 233 234 235 236 237 238 239 240 [...] (21 flits)
Measured flits: 211 232 233 234 235 236 237 238 239 240 [...] (21 flits)
Class 0:
Remaining flits: 211 232 233 234 235 236 237 238 239 240 [...] (21 flits)
Measured flits: 211 232 233 234 235 236 237 238 239 240 [...] (21 flits)
Class 0:
Remaining flits: 211 232 233 234 235 236 237 238 239 240 [...] (21 flits)
Measured flits: 211 232 233 234 235 236 237 238 239 240 [...] (21 flits)
Class 0:
Remaining flits: 211 232 233 234 235 236 237 238 239 240 [...] (21 flits)
Measured flits: 211 232 233 234 235 236 237 238 239 240 [...] (21 flits)
Class 0:
Remaining flits: 211 232 233 234 235 236 237 238 239 240 [...] (21 flits)
Measured flits: 211 232 233 234 235 236 237 238 239 240 [...] (21 flits)
Class 0:
Remaining flits: 211 232 233 234 235 236 237 238 239 240 [...] (21 flits)
Measured flits: 211 232 233 234 235 236 237 238 239 240 [...] (21 flits)
Class 0:
Remaining flits: 211 232 233 234 235 236 237 238 239 240 [...] (21 flits)
Measured flits: 211 232 233 234 235 236 237 238 239 240 [...] (21 flits)
Class 0:
Remaining flits: 211 232 233 234 235 236 237 238 239 240 [...] (21 flits)
Measured flits: 211 232 233 234 235 236 237 238 239 240 [...] (21 flits)
Class 0:
Remaining flits: 211 232 233 234 235 236 237 238 239 240 [...] (21 flits)
Measured flits: 211 232 233 234 235 236 237 238 239 240 [...] (21 flits)
Class 0:
Remaining flits: 211 232 233 234 235 236 237 238 239 240 [...] (21 flits)
Measured flits: 211 232 233 234 235 236 237 238 239 240 [...] (21 flits)
Class 0:
Remaining flits: 211 232 233 234 235 236 237 238 239 240 [...] (21 flits)
Measured flits: 211 232 233 234 235 236 237 238 239 240 [...] (21 flits)
Class 0:
Remaining flits: 211 232 233 234 235 236 237 238 239 240 [...] (21 flits)
Measured flits: 211 232 233 234 235 236 237 238 239 240 [...] (21 flits)
Class 0:
Remaining flits: 211 232 233 234 235 236 237 238 239 240 [...] (21 flits)
Measured flits: 211 232 233 234 235 236 237 238 239 240 [...] (21 flits)
Class 0:
Remaining flits: 211 232 233 234 235 236 237 238 239 240 [...] (21 flits)
Measured flits: 211 232 233 234 235 236 237 238 239 240 [...] (21 flits)
Class 0:
Remaining flits: 211 232 233 234 235 236 237 238 239 240 [...] (21 flits)
Measured flits: 211 232 233 234 235 236 237 238 239 240 [...] (21 flits)
Class 0:
Remaining flits: 211 232 233 234 235 236 237 238 239 240 [...] (21 flits)
Measured flits: 211 232 233 234 235 236 237 238 239 240 [...] (21 flits)
Class 0:
Remaining flits: 211 232 233 234 235 236 237 238 239 240 [...] (21 flits)
Measured flits: 211 232 233 234 235 236 237 238 239 240 [...] (21 flits)
Class 0:
Remaining flits: 211 232 233 234 235 236 237 238 239 240 [...] (21 flits)
Measured flits: 211 232 233 234 235 236 237 238 239 240 [...] (21 flits)
Class 0:
Remaining flits: 211 232 233 234 235 236 237 238 239 240 [...] (21 flits)
Measured flits: 211 232 233 234 235 236 237 238 239 240 [...] (21 flits)
Class 0:
Remaining flits: 211 232 233 234 235 236 237 238 239 240 [...] (21 flits)
Measured flits: 211 232 233 234 235 236 237 238 239 240 [...] (21 flits)
Class 0:
Remaining flits: 211 232 233 234 235 236 237 238 239 240 [...] (21 flits)
Measured flits: 211 232 233 234 235 236 237 238 239 240 [...] (21 flits)
Class 0:
Remaining flits: 211 232 233 234 235 236 237 238 239 240 [...] (21 flits)
Measured flits: 211 232 233 234 235 236 237 238 239 240 [...] (21 flits)
Class 0:
Remaining flits: 211 232 233 234 235 236 237 238 239 240 [...] (21 flits)
Measured flits: 211 232 233 234 235 236 237 238 239 240 [...] (21 flits)
Class 0:
Remaining flits: 211 232 233 234 235 236 237 238 239 240 [...] (21 flits)
Measured flits: 211 232 233 234 235 236 237 238 239 240 [...] (21 flits)
Class 0:
Remaining flits: 211 232 233 234 235 236 237 238 239 240 [...] (21 flits)
Measured flits: 211 232 233 234 235 236 237 238 239 240 [...] (21 flits)
Class 0:
Remaining flits: 211 232 233 234 235 236 237 238 239 240 [...] (21 flits)
Measured flits: 211 232 233 234 235 236 237 238 239 240 [...] (21 flits)
Class 0:
Remaining flits: 211 232 233 234 235 236 237 238 239 240 [...] (21 flits)
Measured flits: 211 232 233 234 235 236 237 238 239 240 [...] (21 flits)
Time taken is 131000 cycles
====== Traffic class 0 ======

Total number of flits generated = 267, changed lanes = 0
Overall minimum packet latency = 538 (1 samples)
Overall average packet latency = 48609.3 (1 samples)
Overall maximum packet latency = 97762 (1 samples)
Overall minimum network latency = 77 (1 samples)
Overall average network latency = 39599.9 (1 samples)
Overall maximum network latency = 97762 (1 samples)
Overall minimum flit latency = 34 (1 samples)
Overall average flit latency = 44321.5 (1 samples)
Overall maximum flit latency = 116528 (1 samples)
Overall minimum fragmentation = 4 (1 samples)
Overall average fragmentation = 5090.12 (1 samples)
Overall maximum fragmentation = 49937 (1 samples)
Overall minimum injected packet rate = 0 (1 samples)
Overall average injected packet rate = 2.96875e-06 (1 samples)
Overall maximum injected packet rate = 7e-05 (1 samples)
Overall minimum accepted packet rate = 0 (1 samples)
Overall average accepted packet rate = 1.25e-06 (1 samples)
Overall maximum accepted packet rate = 6e-05 (1 samples)
Overall minimum injected flit rate = 0 (1 samples)
Overall average injected flit rate = 1.42188e-05 (1 samples)
Overall maximum injected flit rate = 0.00035 (1 samples)
Overall minimum accepted flit rate = 0 (1 samples)
Overall average accepted flit rate = 6.875e-06 (1 samples)
Overall maximum accepted flit rate = 0.0003 (1 samples)
Overall average injected packet size = 4.78947 (1 samples)
Overall average accepted packet size = 5.5 (1 samples)
Overall average hops = 5.11765 (1 samples)
Overall throughput of the network (flits/cycle) = 0.00246
Overall throughput of the network (packets/cycle) = 0.0005
Overall workload runtime = 100000 (1 samples)

The distribution of the source packets of size 1 is: 

Source [0] = 0
Source [1] = 1
Source [2] = 1
Source [3] = 0
Source [4] = 0
Source [5] = 0
Source [6] = 0
Source [7] = 0
Source [8] = 0
Source [9] = 0
Source [10] = 0
Source [11] = 0
Source [12] = 0
Source [13] = 0
Source [14] = 0
Source [15] = 0
Source [16] = 0
Source [17] = 0
Source [18] = 0
Source [19] = 0
Source [20] = 0
Source [21] = 0
Source [22] = 0
Source [23] = 0
Source [24] = 0
Source [25] = 0
Source [26] = 0
Source [27] = 0
Source [28] = 0
Source [29] = 0
Source [30] = 0
Source [31] = 0
Source [32] = 0
Source [33] = 0
Source [34] = 0
Source [35] = 0
Source [36] = 0
Source [37] = 0
Source [38] = 0
Source [39] = 0
Source [40] = 0
Source [41] = 0
Source [42] = 0
Source [43] = 0
Source [44] = 0
Source [45] = 0
Source [46] = 0
Source [47] = 0
Source [48] = 0
Source [49] = 0
Source [50] = 0
Source [51] = 0
Source [52] = 0
Source [53] = 0
Source [54] = 0
Source [55] = 0
Source [56] = 0
Source [57] = 0
Source [58] = 0
Source [59] = 0
Source [60] = 0
Source [61] = 0
Source [62] = 0
Source [63] = 0
The distribution of the source packets of size 5 is: 

Source [0] = 3
Source [1] = 4
Source [2] = 3
Source [3] = 1
Source [4] = 0
Source [5] = 1
Source [6] = 0
Source [7] = 0
Source [8] = 0
Source [9] = 0
Source [10] = 0
Source [11] = 0
Source [12] = 0
Source [13] = 0
Source [14] = 0
Source [15] = 0
Source [16] = 0
Source [17] = 0
Source [18] = 0
Source [19] = 0
Source [20] = 0
Source [21] = 0
Source [22] = 0
Source [23] = 0
Source [24] = 0
Source [25] = 0
Source [26] = 0
Source [27] = 0
Source [28] = 0
Source [29] = 0
Source [30] = 0
Source [31] = 0
Source [32] = 5
Source [33] = 5
Source [34] = 0
Source [35] = 0
Source [36] = 0
Source [37] = 0
Source [38] = 0
Source [39] = 0
Source [40] = 0
Source [41] = 1
Source [42] = 0
Source [43] = 0
Source [44] = 0
Source [45] = 0
Source [46] = 1
Source [47] = 0
Source [48] = 0
Source [49] = 0
Source [50] = 0
Source [51] = 0
Source [52] = 0
Source [53] = 0
Source [54] = 0
Source [55] = 0
Source [56] = 0
Source [57] = 1
Source [58] = 0
Source [59] = 0
Source [60] = 0
Source [61] = 6
Source [62] = 14
Source [63] = 8
The distribution of the dest packets of size 1 is: 

dest [0] = 0
dest [1] = 1
dest [2] = 0
dest [3] = 0
dest [4] = 0
dest [5] = 1
dest [6] = 0
dest [7] = 0
dest [8] = 0
dest [9] = 0
dest [10] = 0
dest [11] = 0
dest [12] = 0
dest [13] = 0
dest [14] = 0
dest [15] = 0
dest [16] = 0
dest [17] = 0
dest [18] = 0
dest [19] = 0
dest [20] = 0
dest [21] = 0
dest [22] = 0
dest [23] = 0
dest [24] = 0
dest [25] = 0
dest [26] = 0
dest [27] = 0
dest [28] = 0
dest [29] = 0
dest [30] = 0
dest [31] = 0
dest [32] = 0
dest [33] = 0
dest [34] = 0
dest [35] = 0
dest [36] = 0
dest [37] = 0
dest [38] = 0
dest [39] = 0
dest [40] = 0
dest [41] = 0
dest [42] = 0
dest [43] = 0
dest [44] = 0
dest [45] = 0
dest [46] = 0
dest [47] = 0
dest [48] = 0
dest [49] = 0
dest [50] = 0
dest [51] = 0
dest [52] = 0
dest [53] = 0
dest [54] = 0
dest [55] = 0
dest [56] = 0
dest [57] = 0
dest [58] = 0
dest [59] = 0
dest [60] = 0
dest [61] = 0
dest [62] = 0
dest [63] = 0
The distribution of the dest packets of size 5 is: 

dest [0] = 0
dest [1] = 1
dest [2] = 9
dest [3] = 0
dest [4] = 0
dest [5] = 10
dest [6] = 0
dest [7] = 0
dest [8] = 0
dest [9] = 0
dest [10] = 0
dest [11] = 0
dest [12] = 0
dest [13] = 0
dest [14] = 0
dest [15] = 0
dest [16] = 3
dest [17] = 0
dest [18] = 0
dest [19] = 0
dest [20] = 0
dest [21] = 0
dest [22] = 0
dest [23] = 1
dest [24] = 0
dest [25] = 0
dest [26] = 0
dest [27] = 0
dest [28] = 0
dest [29] = 0
dest [30] = 0
dest [31] = 0
dest [32] = 0
dest [33] = 0
dest [34] = 0
dest [35] = 0
dest [36] = 0
dest [37] = 0
dest [38] = 0
dest [39] = 0
dest [40] = 0
dest [41] = 0
dest [42] = 0
dest [43] = 0
dest [44] = 0
dest [45] = 0
dest [46] = 0
dest [47] = 6
dest [48] = 0
dest [49] = 0
dest [50] = 0
dest [51] = 0
dest [52] = 0
dest [53] = 0
dest [54] = 0
dest [55] = 0
dest [56] = 0
dest [57] = 0
dest [58] = 15
dest [59] = 0
dest [60] = 0
dest [61] = 8
dest [62] = 0
dest [63] = 0Total run time 281.774
